
  OWA STORM WATER MANAGEMENT MODEL - VERSION v5.2.3 (OWA 2023-03-28)
  ------------------------------------------------------------

  WARNING 04: minimum elevation drop used for Conduit WS02004404WS02004405
  WARNING 03: negative offset ignored for Link YS02001904YS02001907
  
  ****************
  Analysis Options
  ****************
  Flow Units ............... LPS
  Process Models:
    Rainfall/Runoff ........ YES
    RDII ................... NO
    Snowmelt ............... NO
    Groundwater ............ NO
    Flow Routing ........... YES
    Ponding Allowed ........ NO
    Water Quality .......... NO
  Infiltration Method ...... HORTON
  Flow Routing Method ...... DYNWAVE
  Surcharge Method ......... EXTRAN
  Starting Date ............ 08/28/2015 08:00:00
  Ending Date .............. 08/28/2015 16:00:00
  Antecedent Dry Days ...... 8.0
  Report Time Step ......... 00:01:00
  Wet Time Step ............ 00:01:00
  Dry Time Step ............ 00:01:00
  Routing Time Step ........ 30.00 sec
  Variable Time Step ....... YES
  Maximum Trials ........... 8
  Number of Threads ........ 4
  Head Tolerance ........... 0.001500 m
  
  
  **************************        Volume         Depth
  Runoff Quantity Continuity     hectare-m            mm
  **************************     ---------       -------
  Total Precipitation ......         1.890        31.197
  Evaporation Loss .........         0.000         0.000
  Infiltration Loss ........         0.216         3.567
  Surface Runoff ...........         1.613        26.632
  Final Storage ............         0.061         1.004
  Continuity Error (%) .....        -0.018
  
  
  **************************        Volume        Volume
  Flow Routing Continuity        hectare-m      10^6 ltr
  **************************     ---------     ---------
  Dry Weather Inflow .......         0.630         6.296
  Wet Weather Inflow .......         1.613        16.135
  Groundwater Inflow .......         0.000         0.000
  RDII Inflow ..............         0.000         0.000
  External Inflow ..........         0.105         1.045
  External Outflow .........         2.176        21.765
  Flooding Loss ............         0.463         4.635
  Evaporation Loss .........         0.000         0.000
  Exfiltration Loss ........         0.000         0.000
  Initial Stored Volume ....         0.303         3.031
  Final Stored Volume ......         0.175         1.754
  Continuity Error (%) .....        -6.218
  
  
  *************************
  Highest Continuity Errors
  *************************
  Node JK-storage (-16.74%)
  Node CC-storage (-11.86%)
  Node YS02001583 (-7.90%)
  Node YS02001884 (5.04%)
  Node HS02004842 (2.56%)
  
  
  ***************************
  Time-Step Critical Elements
  ***************************
  Link WS02006252WS02006251 (72.13%)
  Link WS02006280WS02006229 (6.79%)
  Link WS02006238WS02006235 (5.70%)
  Link YS02001793JiankangQianchi (4.92%)
  Link WS02004404WS02004405 (2.50%)
  
  
  ********************************
  Highest Flow Instability Indexes
  ********************************
  Link WS02006113WS02006111 (29)
  Link WS02006252WS02006251 (10)
  Link WS02006111WS02006112 (9)
  Link WS02006238WS02006235 (9)
  Link WS02004404WS02004405 (8)
  
  
  *********************************
  Most Frequent Nonconverging Nodes
  *********************************
  Node CC-1 (5.61%)
  Node CC-2 (5.61%)
  Node JK-1 (5.61%)
  Node JK-2 (5.61%)
  Node WSC (5.61%)
  
  
  *************************
  Routing Time Step Summary
  *************************
  Minimum Time Step           :     0.00 sec
  Average Time Step           :     1.46 sec
  Maximum Time Step           :    30.00 sec
  % of Time in Steady State   :     0.00
  Average Iterations per Step :     2.59
  % of Steps Not Converging   :     5.61
  Time Step Frequencies       :
     30.000 - 13.228 sec      :     0.01 %
     13.228 -  5.833 sec      :     0.16 %
      5.833 -  2.572 sec      :     2.56 %
      2.572 -  1.134 sec      :    59.62 %
      1.134 -  0.500 sec      :    37.64 %
  
  
  ***************************
  Subcatchment Runoff Summary
  ***************************
  
  ------------------------------------------------------------------------------------------------------------------------------
                            Total      Total      Total      Total     Imperv       Perv      Total       Total     Peak  Runoff
                           Precip      Runon       Evap      Infil     Runoff     Runoff     Runoff      Runoff   Runoff   Coeff
  Subcatchment                 mm         mm         mm         mm         mm         mm         mm    10^6 ltr      LPS
  ------------------------------------------------------------------------------------------------------------------------------
  sub0                      31.20       0.00       0.00       0.93      27.76       1.25      29.01        0.02    15.91   0.930
  sub1                      31.20       0.00       0.00       1.56      26.51       1.87      28.38        0.19   101.63   0.910
  sub10                     31.20       0.00       0.00       1.11      27.41       1.39      28.80        0.32   176.04   0.923
  sub11                     31.20       0.00       0.00       1.09      27.43       1.41      28.84        0.34   197.69   0.924
  sub12                     31.20       0.00       0.00       1.78      25.96       2.28      28.24        0.25   160.44   0.905
  sub14                     31.20       0.00       0.00       1.24      27.13       1.57      28.69        0.27   156.25   0.920
  sub15                     31.20       0.00       0.00       4.80      20.86       4.56      25.43        0.44   224.22   0.815
  sub16                     31.20       0.00       0.00       4.99      19.99       5.31      25.29        0.26   151.29   0.811
  sub17                     31.20       0.00       0.00       4.86      20.28       5.12      25.41        0.22   122.83   0.814
  sub2                      31.20       0.00       0.00       6.69      18.75       4.85      23.60        0.22    96.06   0.756
  sub22                     31.20       0.00       0.00       7.22      17.00       6.20      23.19        1.47   725.07   0.743
  sub23                     31.20       0.00       0.00       5.93      18.79       5.62      24.40        1.16   610.69   0.782
  sub3                      31.20       0.00       0.00       7.13      18.71       4.41      23.12        0.52   204.87   0.741
  sub4                      31.20       0.00       0.00       1.73      26.36       1.70      28.06        0.59   231.85   0.899
  sub5                      31.20       0.00       0.00       0.97      27.70       1.22      28.92        0.33   177.75   0.927
  sub60                     31.20       0.00       0.00       1.67      26.24       2.08      28.32        0.37   221.99   0.908
  sub61                     31.20       0.00       0.00       2.41      24.76       2.89      27.65        0.51   303.53   0.886
  sub62                     31.20       0.00       0.00       1.11      27.41       1.39      28.80        0.79   429.94   0.923
  sub63                     31.20       0.00       0.00       4.42      21.17       4.62      25.80        0.59   324.57   0.827
  sub64                     31.20       0.00       0.00       2.24      25.31       2.44      27.75        0.67   336.59   0.889
  sub65                     31.20       0.00       0.00       1.94      25.88       2.12      28.00        0.77   375.67   0.898
  sub66                     31.20       0.00       0.00       5.31      21.07       3.74      24.81        1.16   463.33   0.795
  sub67                     31.20       0.00       0.00       1.08      27.45       1.42      28.87        0.54   344.79   0.925
  sub68                     31.20       0.00       0.00       2.00      25.64       2.37      28.01        0.77   436.36   0.898
  sub69                     31.20       0.00       0.00       1.73      26.40       2.95      29.36        1.09   510.07   0.941
  sub7                      31.20       0.00       0.00       1.23      27.14       1.58      28.72        0.10    58.85   0.921
  sub70                     31.20       0.00       0.00       5.53      20.43       5.08      25.51        0.74   265.27   0.818
  sub71                     31.20       0.00       0.00       1.14      27.37       1.36      28.73        0.75   369.87   0.921
  sub72                     31.20       0.00       0.00       1.01      27.61       1.17      28.78        0.40   174.99   0.923
  sub8                      31.20       0.00       0.00       1.24      27.13       1.57      28.70        0.18   106.53   0.920
  sub9                      31.20       0.00       0.00       1.24      27.13       1.57      28.70        0.14    79.51   0.920
  
  
  ******************
  Node Depth Summary
  ******************
  
  ---------------------------------------------------------------------------------
                                 Average  Maximum  Maximum  Time of Max    Reported
                                   Depth    Depth      HGL   Occurrence   Max Depth
  Node                 Type       Meters   Meters   Meters  days hr:min      Meters
  ---------------------------------------------------------------------------------
  HS02004478           JUNCTION     0.11     1.40    10.63     0  02:06        1.39
  HS02004479           JUNCTION     0.17     1.67    10.87     0  02:02        1.64
  HS02004480           JUNCTION     0.14     1.61    10.85     0  02:02        1.58
  HS02004770           JUNCTION     0.16     1.42    11.25     0  02:01        1.42
  HS02004777           JUNCTION     0.19     1.48    11.28     0  02:01        1.45
  HS02004785           JUNCTION     0.09     1.49    11.39     0  02:01        1.35
  HS02004788           JUNCTION     0.07     1.42    11.32     0  02:01        1.33
  HS02004792           JUNCTION     0.09     1.60    11.12     0  02:02        1.60
  HS02004799           JUNCTION     0.19     1.76    10.97     0  02:02        1.74
  HS02004802           JUNCTION     0.20     1.50    10.63     0  02:06        1.49
  HS02004807           JUNCTION     0.17     1.49    10.66     0  02:03        1.45
  HS02004817           JUNCTION     0.47     1.87    10.71     0  02:05        1.77
  HS02004824           JUNCTION     0.07     1.42    10.83     0  02:02        1.22
  HS02004830           JUNCTION     0.07     1.38    10.85     0  02:05        1.16
  HS02004837           JUNCTION     0.06     1.31    10.89     0  02:05        1.05
  HS02004842           JUNCTION     0.35     1.61    10.88     0  02:05        1.37
  HS02004848           JUNCTION     0.04     1.27    10.87     0  02:05        1.04
  HS02004852           JUNCTION     0.04     1.45    10.96     0  02:05        1.10
  HS02004856           JUNCTION     0.10     1.33    10.76     0  02:05        1.15
  HS02004862           JUNCTION     0.05     1.83    11.21     0  02:04        1.14
  HS02004870           JUNCTION     0.04     2.10    11.39     0  02:04        1.16
  HS02004876           JUNCTION     0.08     1.95    10.98     0  02:04        1.31
  HS02004881           JUNCTION     0.04     2.05    11.08     0  02:04        1.18
  HS02004901           JUNCTION     0.17     1.42    11.24     0  02:01        1.42
  WS02001211           JUNCTION     0.63     0.79     5.63     0  02:07        0.79
  WS02001212           JUNCTION     0.36     0.55     5.62     0  02:08        0.55
  WS02001213           JUNCTION     0.57     0.85     5.61     0  02:08        0.85
  WS02003059           JUNCTION     0.64     0.92     5.60     0  02:08        0.92
  WS02003060           JUNCTION     0.35     0.66     5.60     0  02:08        0.66
  WS02003066           JUNCTION     0.21     0.44     5.99     0  02:04        0.44
  WS02003067           JUNCTION     0.52     0.87     6.19     0  02:03        0.87
  WS02003069           JUNCTION     0.39     0.75     5.34     0  02:09        0.75
  WS02003072           JUNCTION     0.46     0.79     5.16     0  02:09        0.79
  WS02003073           JUNCTION     0.27     0.50     4.56     0  02:10        0.50
  WS02004138           JUNCTION     0.13     0.14     7.39     0  00:32        0.14
  WS02004139           JUNCTION     0.56     0.72     5.63     0  02:07        0.72
  WS02004401           JUNCTION     0.67     1.74     7.74     0  02:03        1.71
  WS02004402           JUNCTION     0.69     1.69     7.65     0  02:03        1.66
  WS02004403           JUNCTION     0.71     1.62     7.55     0  02:03        1.60
  WS02004404           JUNCTION     0.78     1.63     7.48     0  02:03        1.61
  WS02004405           JUNCTION     0.77     1.59     7.44     0  02:03        1.55
  WS02004406           JUNCTION     0.78     1.47     7.30     0  02:03        1.45
  WS02004407           JUNCTION     0.21     0.80     7.11     0  02:04        0.80
  WS02004409           JUNCTION     0.45     1.30     7.07     0  02:04        1.29
  WS02004410           JUNCTION     0.47     1.22     6.94     0  02:04        1.22
  WS02004411           JUNCTION     0.48     1.15     6.83     0  02:03        1.15
  WS02004412           JUNCTION     0.49     1.07     6.71     0  02:04        1.06
  WS02004413           JUNCTION     0.65     1.12     6.59     0  02:04        1.12
  WS02006109           JUNCTION     0.79     2.64     9.26     0  02:02        2.64
  WS02006110           JUNCTION     0.76     2.34     8.93     0  02:03        2.34
  WS02006111           JUNCTION     0.29     1.61     8.31     0  02:03        1.58
  WS02006112           JUNCTION     0.85     2.68     8.56     0  00:00        2.18
  WS02006113           JUNCTION     0.36     1.74     8.63     0  02:03        1.72
  WS02006115           JUNCTION     0.56     1.82     7.96     0  02:03        1.78
  WS02006116           JUNCTION     0.64     1.82     7.86     0  02:03        1.79
  WS02006228           JUNCTION     0.80     3.01     9.66     0  02:02        2.97
  WS02006229           JUNCTION     0.79     3.19     9.88     0  02:02        3.14
  WS02006230           JUNCTION     0.75     2.65     9.39     0  01:59        2.65
  WS02006231           JUNCTION     0.53     2.20     9.32     0  02:15        2.20
  WS02006232           JUNCTION     0.64     2.18     9.22     0  01:59        2.18
  WS02006234           JUNCTION     0.53     1.96     9.12     0  01:58        1.96
  WS02006235           JUNCTION     0.56     2.00     9.16     0  02:30        1.94
  WS02006238           JUNCTION     0.58     2.03     9.18     0  02:30        1.94
  WS02006239           JUNCTION     0.53     1.88     9.09     0  02:30        1.79
  WS02006240           JUNCTION     0.48     1.69     8.98     0  02:30        1.63
  WS02006242           JUNCTION     0.54     1.55     8.82     0  01:57        1.55
  WS02006243           JUNCTION     0.44     1.40     8.82     0  02:30        1.39
  WS02006245           JUNCTION     0.43     1.32     8.81     0  02:31        1.32
  WS02006247           JUNCTION     0.45     1.31     8.81     0  02:31        1.31
  WS02006248           JUNCTION     0.40     1.10     8.69     0  01:45        1.10
  WS02006249           JUNCTION     0.43     1.09     8.69     0  01:45        1.09
  WS02006251           JUNCTION     0.45     2.20     9.87     0  02:04        2.05
  WS02006252           JUNCTION     0.35     1.50     9.74     0  00:40        1.50
  WS02006253           JUNCTION     0.49     3.39    11.04     0  02:04        2.50
  WS02006256           JUNCTION     0.86     2.35     9.28     0  00:10        2.35
  WS02006280           JUNCTION     0.15     1.70     9.97     0  02:02        1.65
  WS02006284           JUNCTION     0.42     1.86    10.25     0  02:02        1.81
  WS02006287           JUNCTION     0.16     1.57    10.53     0  02:02        1.56
  WSF200               JUNCTION     0.19     0.50     5.73     0  02:08        0.50
  YS02001580           JUNCTION     0.02     1.05     9.59     0  02:02        0.64
  YS02001583           JUNCTION     0.05     1.14     9.64     0  02:02        0.69
  YS02001586           JUNCTION     0.09     1.13     9.30     0  02:02        1.02
  YS02001590           JUNCTION     0.16     1.40     9.26     0  02:02        1.26
  YS02001593           JUNCTION     0.10     1.34     9.21     0  02:02        1.21
  YS02001596           JUNCTION     0.14     1.69     9.11     0  02:02        1.61
  YS02001600           JUNCTION     0.18     1.87     9.00     0  02:02        1.85
  YS02001601           JUNCTION     0.35     2.06     8.90     0  02:00        2.06
  YS02001602           JUNCTION     0.28     1.87     8.77     0  02:01        1.87
  YS02001605           JUNCTION     0.25     1.78     8.68     0  02:01        1.68
  YS02001607           JUNCTION     0.26     1.64     8.49     0  02:01        1.43
  YS02001610           JUNCTION     0.31     1.68     8.48     0  02:01        1.47
  YS02001613           JUNCTION     0.27     1.68     8.52     0  02:02        1.42
  YS02001616           JUNCTION     0.20     1.61     8.52     0  02:01        1.34
  YS02001619           JUNCTION     0.18     1.61     8.54     0  02:01        1.32
  YS02001622           JUNCTION     0.17     1.62     8.52     0  02:01        1.29
  YS02001625           JUNCTION     0.42     1.78     8.38     0  02:02        1.52
  YS02001629           JUNCTION     0.26     1.85     8.40     0  02:02        1.52
  YS02001633           JUNCTION     0.33     1.80     8.25     0  02:02        1.53
  YS02001641           JUNCTION     0.33     1.40     7.83     0  02:02        1.27
  YS02001644           JUNCTION     0.32     1.25     7.68     0  02:02        1.19
  YS02001647           JUNCTION     0.13     0.87     7.48     0  02:04        0.85
  YS02001649           JUNCTION     0.15     0.98     7.37     0  02:03        0.97
  YS02001652           JUNCTION     0.07     0.77     7.37     0  02:03        0.77
  YS02001655           JUNCTION     0.05     0.52     7.37     0  02:06        0.49
  YS02001658           JUNCTION     0.04     0.26     7.40     0  02:03        0.26
  YS02001661           JUNCTION     0.10     0.31     7.72     0  02:03        0.31
  YS02001664           JUNCTION     0.03     0.22     8.14     0  02:03        0.22
  YS02001745           JUNCTION     0.03     0.20     7.71     0  02:02        0.20
  YS02001748           JUNCTION     0.03     0.23     7.30     0  02:02        0.23
  YS02001751           JUNCTION     0.03     0.34     7.22     0  02:06        0.32
  YS02001754           JUNCTION     0.05     0.67     7.28     0  02:07        0.62
  YS02001757           JUNCTION     0.16     0.97     7.23     0  02:05        0.95
  YS02001759           JUNCTION     0.11     0.88     7.24     0  02:05        0.87
  YS02001762           JUNCTION     0.10     0.84     7.24     0  02:06        0.84
  YS02001765           JUNCTION     0.09     0.80     7.25     0  02:06        0.79
  YS02001767           JUNCTION     0.10     0.78     7.27     0  02:06        0.76
  YS02001770           JUNCTION     0.11     0.79     7.29     0  02:05        0.79
  YS02001774           JUNCTION     0.17     0.88     7.30     0  02:06        0.88
  YS02001779           JUNCTION     0.03     0.61     7.30     0  02:05        0.61
  YS02001783           JUNCTION     0.14     1.11     7.25     0  02:08        1.11
  YS02001784           JUNCTION     0.16     1.02     7.09     0  02:08        1.01
  YS02001786           JUNCTION     0.14     0.82     6.85     0  02:06        0.81
  YS02001788           JUNCTION     0.10     0.59     6.57     0  02:08        0.59
  YS02001790           JUNCTION     0.12     0.68     6.33     0  02:08        0.68
  YS02001791           JUNCTION     0.08     0.41     5.88     0  02:08        0.40
  YS02001793           JUNCTION     0.05     0.23     5.06     0  02:04        0.22
  YS02001882           JUNCTION     0.18     1.36     8.07     0  02:06        1.34
  YS02001884           JUNCTION     0.26     1.45     8.07     0  02:06        1.44
  YS02001887           JUNCTION     0.34     1.53     8.07     0  02:06        1.51
  YS02001890           JUNCTION     0.37     1.56     8.06     0  02:06        1.53
  YS02001895           JUNCTION     0.15     1.31     8.06     0  02:06        1.28
  YS02001898           JUNCTION     0.16     1.31     8.05     0  02:06        1.28
  YS02001901           JUNCTION     0.26     1.44     8.05     0  02:08        1.41
  YS02001904           JUNCTION     0.25     1.40     8.03     0  02:08        1.39
  YS02001907           JUNCTION     0.56     1.74     8.03     0  02:08        1.73
  YS02001910           JUNCTION     0.36     1.54     8.05     0  02:08        1.54
  YS02001915           JUNCTION     0.18     1.36     8.08     0  02:08        1.35
  YS02001918           JUNCTION     0.08     1.03     8.09     0  02:08        1.02
  YS02001920           JUNCTION     0.15     1.07     8.08     0  02:08        1.07
  YS02001923           JUNCTION     0.05     0.83     8.09     0  02:07        0.81
  YS02001926           JUNCTION     0.09     0.65     8.09     0  02:07        0.62
  YS02001929           JUNCTION     0.04     0.39     8.08     0  02:07        0.39
  YS02006553           JUNCTION     0.56     1.73     8.02     0  02:08        1.72
  YS02006556           JUNCTION     0.53     1.67     7.98     0  02:08        1.66
  YS02006558           JUNCTION     0.58     1.70     7.97     0  02:08        1.68
  YS02006561           JUNCTION     0.08     0.70     7.36     0  02:08        0.69
  YS02163301           JUNCTION     0.28     1.84     8.36     0  02:02        1.51
  YS02163601           JUNCTION     0.38     1.67     8.07     0  02:02        1.45
  YS02164001           JUNCTION     0.31     1.49     7.95     0  02:02        1.32
  YSB1154              JUNCTION     0.30     1.93    10.99     0  02:02        1.84
  YSB1171              JUNCTION     0.45     1.95    10.85     0  02:02        1.95
  YSB1174              JUNCTION     0.25     1.81    10.92     0  02:02        1.77
  YSB6556              JUNCTION     0.20     1.78    10.95     0  02:02        1.72
  CC-1                 OUTFALL      0.00     0.00     0.00     0  00:00        0.00
  CC-2                 OUTFALL      0.00     0.00     0.00     0  00:00        0.00
  JK-1                 OUTFALL      0.00     0.00     0.00     0  00:00        0.00
  JK-2                 OUTFALL      0.00     0.00     0.00     0  00:00        0.00
  WSC                  OUTFALL      0.27     0.50     1.17     0  02:10        0.50
  CC-storage           STORAGE      0.14     0.80     6.30     0  00:00        0.80
  JK-storage           STORAGE      0.08     3.84     4.64     0  02:10        3.84
  XR-storage           STORAGE      7.96     9.26     7.26     0  08:00        9.26
  
  
  *******************
  Node Inflow Summary
  *******************
  
  -------------------------------------------------------------------------------------------------
                                  Maximum  Maximum                  Lateral       Total        Flow
                                  Lateral    Total  Time of Max      Inflow      Inflow     Balance
                                   Inflow   Inflow   Occurrence      Volume      Volume       Error
  Node                 Type           LPS      LPS  days hr:min    10^6 ltr    10^6 ltr     Percent
  -------------------------------------------------------------------------------------------------
  HS02004478           JUNCTION      0.00  2062.00     0  02:01           0        5.35      -0.014
  HS02004479           JUNCTION      0.00   356.27     0  02:02           0       0.583       0.128
  HS02004480           JUNCTION      0.00  2055.90     0  02:02           0        4.18       0.051
  HS02004770           JUNCTION    610.69   745.44     0  02:01        1.16         1.4       0.212
  HS02004777           JUNCTION      0.03   748.12     0  02:01    0.000864        1.39       0.369
  HS02004785           JUNCTION      0.15   757.45     0  02:01     0.00432        1.39       0.021
  HS02004788           JUNCTION    225.89   921.35     0  02:01       0.485        1.87      -0.024
  HS02004792           JUNCTION    725.35  1568.43     0  02:02        1.47        3.34       0.013
  HS02004799           JUNCTION    156.25  1723.13     0  02:02       0.273        3.61       0.064
  HS02004802           JUNCTION      0.00   342.45     0  02:19           0         1.2       0.323
  HS02004807           JUNCTION    197.69   407.77     0  02:02       0.335        1.26       0.328
  HS02004817           JUNCTION      0.60   407.27     0  02:02      0.0173           1       1.685
  HS02004824           JUNCTION    231.90   621.54     0  02:02       0.587        1.13       0.050
  HS02004830           JUNCTION      0.15   631.27     0  02:02     0.00432       0.679       0.202
  HS02004837           JUNCTION    182.39   816.58     0  02:02       0.501       0.841       0.098
  HS02004842           JUNCTION      0.00   786.78     0  02:03           0       0.508       2.631
  HS02004848           JUNCTION    204.87   987.15     0  02:03        0.52       0.895       0.036
  HS02004852           JUNCTION      0.00   940.90     0  02:03           0       0.775       0.037
  HS02004856           JUNCTION     79.51   982.01     0  02:03       0.138       0.912       0.188
  HS02004862           JUNCTION     96.26  1068.62     0  02:04       0.226        1.14       0.041
  HS02004870           JUNCTION    106.53  1164.24     0  02:04       0.183        1.32      -0.014
  HS02004876           JUNCTION    101.63  1122.00     0  02:04       0.189        1.51       0.046
  HS02004881           JUNCTION     58.85  1112.94     0  02:04      0.0968         1.6       0.008
  HS02004901           JUNCTION    151.29   166.29     0  02:03       0.265       0.266       0.633
  WS02001211           JUNCTION      7.35   205.51     0  02:30       0.212        5.44       0.612
  WS02001212           JUNCTION      0.00   213.03     0  02:30           0        5.41       0.290
  WS02001213           JUNCTION      0.00   217.31     0  02:29           0        5.39       0.335
  WS02003059           JUNCTION      0.00   222.84     0  02:29           0        5.38       0.599
  WS02003060           JUNCTION     16.53  1432.24     0  02:08       0.476          14       0.110
  WS02003066           JUNCTION      0.00  1225.48     0  02:04           0        8.13       0.021
  WS02003067           JUNCTION      0.00  1225.27     0  02:04           0        8.14       0.057
  WS02003069           JUNCTION      0.32  1432.31     0  02:09     0.00922        13.9       0.115
  WS02003072           JUNCTION      0.00  1432.14     0  02:09           0        13.9       0.155
  WS02003073           JUNCTION      1.82  1433.90     0  02:09      0.0524          14       0.161
  WS02004138           JUNCTION      0.00   190.00     0  00:29           0        5.25       0.057
  WS02004139           JUNCTION      0.32   190.32     0  00:32     0.00924        5.26       0.508
  WS02004401           JUNCTION      0.00  1226.74     0  02:03           0        8.26       0.145
  WS02004402           JUNCTION      0.00  1227.09     0  02:03           0        8.25       0.141
  WS02004403           JUNCTION      0.00  1227.81     0  02:03           0        8.24       0.138
  WS02004404           JUNCTION      0.16  1229.07     0  02:03     0.00467        8.23       0.108
  WS02004405           JUNCTION      0.04  1230.64     0  02:03      0.0011        8.22       0.162
  WS02004406           JUNCTION      0.00  1231.88     0  02:03           0        8.21       0.273
  WS02004407           JUNCTION      0.00  1232.42     0  02:03           0        8.18       0.023
  WS02004409           JUNCTION      0.00  1225.36     0  02:04           0        8.18       0.048
  WS02004410           JUNCTION      0.00  1225.36     0  02:04           0        8.17       0.070
  WS02004411           JUNCTION      0.00  1225.40     0  02:04           0        8.17       0.083
  WS02004412           JUNCTION      0.00  1225.30     0  02:04           0        8.16       0.109
  WS02004413           JUNCTION      0.00  1225.27     0  02:04           0        8.15       0.184
  WS02006109           JUNCTION      1.23  1308.01     0  00:00      0.0354        8.03       0.098
  WS02006110           JUNCTION      0.00  1119.29     0  02:07           0           8      -0.431
  WS02006111           JUNCTION      0.00  1176.04     0  00:00           0        8.02      -0.469
  WS02006112           JUNCTION    122.83  2307.30     0  00:00       0.218        8.28       0.004
  WS02006113           JUNCTION      0.00  1119.40     0  02:07           0        7.99      -0.559
  WS02006115           JUNCTION      0.00  2152.75     0  00:00           0        8.26       0.058
  WS02006116           JUNCTION      0.00  1227.38     0  02:03           0        8.26       0.012
  WS02006228           JUNCTION      0.00  1159.13     0  02:06           0        7.97       0.041
  WS02006229           JUNCTION      0.00  2036.85     0  02:06           0        8.91       0.088
  WS02006230           JUNCTION     10.28   890.97     0  02:06       0.296        4.54       0.113
  WS02006231           JUNCTION      0.00   453.26     0  02:07           0        3.99      -0.053
  WS02006232           JUNCTION      0.00   453.51     0  02:19           0        3.99       0.194
  WS02006234           JUNCTION      0.00   453.05     0  02:07           0        3.99      -0.045
  WS02006235           JUNCTION      0.00   442.75     0  03:32           0        4.03       0.105
  WS02006238           JUNCTION      0.00   415.63     0  02:07           0        3.32      -0.229
  WS02006239           JUNCTION      0.00   415.01     0  02:06           0        3.31      -0.275
  WS02006240           JUNCTION      0.00   414.85     0  02:06           0        3.31       0.009
  WS02006242           JUNCTION      0.00   414.92     0  02:14           0        3.31       0.093
  WS02006243           JUNCTION      0.00   421.31     0  01:44           0         3.1      -0.115
  WS02006245           JUNCTION      0.00   432.12     0  01:44           0        3.11       0.274
  WS02006247           JUNCTION      0.00   439.84     0  01:44           0        3.11       0.046
  WS02006248           JUNCTION      0.00   450.57     0  01:45           0        3.27       0.002
  WS02006249           JUNCTION      0.00  1289.67     0  02:06           0        5.29       0.134
  WS02006251           JUNCTION      0.08  1287.74     0  02:06     0.00222        5.32      -0.011
  WS02006252           JUNCTION      0.00   400.00     0  00:05           0        3.66      -0.048
  WS02006253           JUNCTION     15.91  1112.45     0  02:06      0.0235        1.67       0.057
  WS02006256           JUNCTION      0.00   300.00     0  01:55           0        1.42      -0.046
  WS02006280           JUNCTION      0.00  2033.60     0  02:06           0        5.33       0.018
  WS02006284           JUNCTION      0.10  2031.47     0  02:06     0.00275        5.32      -0.010
  WS02006287           JUNCTION      0.00  2026.28     0  02:06           0        5.32       0.010
  WSF200               JUNCTION      0.00  1225.35     0  02:04           0        8.13       0.011
  YS02001580           JUNCTION      0.00   124.88     0  02:02           0     0.00453       1.065
  YS02001583           JUNCTION      0.00   203.52     0  02:02           0      0.0152      -7.318
  YS02001586           JUNCTION    265.27   265.96     0  02:05       0.737       0.749       0.227
  YS02001590           JUNCTION      0.00   266.14     0  02:05           0       0.735      -0.055
  YS02001593           JUNCTION      0.00   266.03     0  02:05           0       0.735       0.012
  YS02001596           JUNCTION      0.00   266.20     0  02:05           0       0.735       0.005
  YS02001600           JUNCTION      0.00   266.16     0  02:05           0       0.735       0.018
  YS02001601           JUNCTION    510.07   772.65     0  02:04        1.09        1.82       0.046
  YS02001602           JUNCTION      0.00   549.36     0  02:01           0        1.65       0.024
  YS02001605           JUNCTION      0.00   549.66     0  02:01           0        1.65       0.024
  YS02001607           JUNCTION      0.00   550.47     0  02:01           0        1.64       0.119
  YS02001610           JUNCTION      0.00   542.86     0  02:01           0        1.64       0.141
  YS02001613           JUNCTION      0.00   550.72     0  02:01           0        1.64       0.102
  YS02001616           JUNCTION      0.00   563.57     0  02:01           0        1.64       0.031
  YS02001619           JUNCTION    463.33   945.97     0  02:01        1.16         2.8      -0.001
  YS02001622           JUNCTION      0.00   957.25     0  02:01           0        2.79      -0.005
  YS02001625           JUNCTION      0.00   941.80     0  02:02           0        2.79       0.322
  YS02001629           JUNCTION      0.00   941.80     0  02:02           0        2.79       0.028
  YS02001633           JUNCTION    375.87  1272.77     0  02:03       0.777        3.56       0.098
  YS02001641           JUNCTION      0.00  1273.83     0  02:03           0        3.56       0.079
  YS02001644           JUNCTION    336.63  1610.87     0  02:03       0.668        4.22       0.081
  YS02001647           JUNCTION      0.00  1610.98     0  02:03           0        4.21       0.006
  YS02001649           JUNCTION      0.00  1986.15     0  02:03           0         4.8       0.008
  YS02001652           JUNCTION      0.00   404.51     0  02:03           0       0.589      -0.142
  YS02001655           JUNCTION      0.15   338.13     0  02:03     0.00443        0.59       0.114
  YS02001658           JUNCTION      0.00   324.23     0  02:03           0       0.585      -0.010
  YS02001661           JUNCTION      0.00   324.46     0  02:03           0       0.586       0.057
  YS02001664           JUNCTION    324.57   324.57     0  02:03       0.586       0.586      -0.002
  YS02001745           JUNCTION    222.00   222.00     0  02:02       0.372       0.372      -0.000
  YS02001748           JUNCTION      0.04   222.29     0  02:02      0.0013       0.374      -0.006
  YS02001751           JUNCTION      0.01   222.37     0  02:02    0.000317       0.374       0.193
  YS02001754           JUNCTION      0.26   297.17     0  02:07     0.00749       0.382      -0.202
  YS02001757           JUNCTION      0.00  2920.48     0  02:07           0         6.5      -0.015
  YS02001759           JUNCTION    303.57   707.16     0  02:07       0.509        1.32      -0.006
  YS02001762           JUNCTION      0.00   443.38     0  02:06           0       0.807       0.017
  YS02001765           JUNCTION      0.00   449.49     0  02:06           0       0.808       0.013
  YS02001767           JUNCTION      0.54   454.21     0  02:06      0.0154       0.808       0.028
  YS02001770           JUNCTION    430.10   440.11     0  02:06       0.793       0.826       0.005
  YS02001774           JUNCTION      0.00    90.31     0  02:04           0      0.0488       2.398
  YS02001779           JUNCTION      0.01    55.47     0  02:04    0.000144      0.0155       0.038
  YS02001783           JUNCTION      0.00  1078.34     0  02:06           0        2.51       0.009
  YS02001784           JUNCTION      1.06  1079.35     0  02:06      0.0305        2.54       0.020
  YS02001786           JUNCTION      0.06  1078.99     0  02:08     0.00162        2.54       0.025
  YS02001788           JUNCTION      0.07  1078.94     0  02:08     0.00204        2.54       0.013
  YS02001790           JUNCTION      0.15  1086.38     0  02:08     0.00446        2.55       0.025
  YS02001791           JUNCTION      0.00  1189.78     0  02:08           0        2.54      -0.007
  YS02001793           JUNCTION      0.00  1128.24     0  02:08           0        2.54       0.001
  YS02001882           JUNCTION      0.00    36.52     0  02:02           0      0.0123       4.954
  YS02001884           JUNCTION      0.00    77.83     0  02:02           0      0.0479       5.309
  YS02001887           JUNCTION    345.24   345.24     0  02:02        0.55       0.583       0.770
  YS02001890           JUNCTION      0.00   339.67     0  02:03           0       0.543       0.934
  YS02001895           JUNCTION      0.00   338.45     0  02:03           0       0.538       0.252
  YS02001898           JUNCTION      0.00   341.06     0  02:03           0       0.536       0.083
  YS02001901           JUNCTION      0.00   350.17     0  02:03           0       0.538       0.575
  YS02001904           JUNCTION      0.00   350.03     0  02:03           0       0.543       0.519
  YS02001907           JUNCTION      0.00   754.90     0  02:11           0        1.77       1.012
  YS02001910           JUNCTION      0.00   578.94     0  02:11           0        1.23       0.574
  YS02001915           JUNCTION    369.89   578.30     0  02:11       0.752        1.24       0.130
  YS02001918           JUNCTION      0.00   276.22     0  02:12           0        0.49       0.043
  YS02001920           JUNCTION      2.87   248.92     0  02:12      0.0827       0.483       0.203
  YS02001923           JUNCTION      0.04   215.47     0  02:10     0.00109       0.398      -0.062
  YS02001926           JUNCTION      0.05   208.55     0  02:07      0.0015       0.397       0.152
  YS02001929           JUNCTION    174.99   174.99     0  02:05       0.396       0.396       0.000
  YS02006553           JUNCTION      0.00   755.32     0  02:11           0        1.76       0.664
  YS02006556           JUNCTION      0.00   754.29     0  02:11           0        1.76       0.456
  YS02006558           JUNCTION    437.24  1095.61     0  02:06       0.796        2.54       0.138
  YS02006561           JUNCTION      0.00  1094.05     0  02:06           0        2.51       0.001
  YS02163301           JUNCTION      0.00   898.60     0  02:05           0        2.79       0.052
  YS02163601           JUNCTION      0.11  1273.23     0  02:03     0.00317        3.56       0.137
  YS02164001           JUNCTION      0.00  1273.33     0  02:03           0        3.56       0.067
  YSB1154              JUNCTION    177.75   177.75     0  02:03       0.328       0.329       0.432
  YSB1171              JUNCTION      0.00   348.64     0  02:02           0       0.582       1.080
  YSB1174              JUNCTION    160.44   160.44     0  02:02       0.247       0.247       0.505
  YSB6556              JUNCTION      0.00   178.42     0  02:03           0       0.329       0.339
  CC-1                 OUTFALL       0.00   683.00     0  00:05           0        5.69       0.000
  CC-2                 OUTFALL       0.00   683.00     0  00:30           0       0.415       0.000
  JK-1                 OUTFALL       0.00  1000.00     0  02:04           0         1.2       0.000
  JK-2                 OUTFALL       0.00  1000.00     0  00:05           0       0.529       0.000
  WSC                  OUTFALL       0.00  1433.87     0  02:10           0        13.9       0.000
  CC-storage           STORAGE       0.00  2756.87     0  02:07           0        8.73     -10.604
  JK-storage           STORAGE       0.00  1126.66     0  02:08           0         2.7     -14.339
  XR-storage           STORAGE     200.00   200.00     0  00:00        5.76        6.36       0.001
  
  
  **********************
  Node Surcharge Summary
  **********************
  
  Surcharging occurs when water rises above the top of the highest conduit.
  ---------------------------------------------------------------------
                                               Max. Height   Min. Depth
                                   Hours       Above Crown    Below Rim
  Node                 Type      Surcharged         Meters       Meters
  ---------------------------------------------------------------------
  HS02004478           JUNCTION        0.14          0.484        0.456
  HS02004479           JUNCTION        0.26          0.865        0.185
  HS02004480           JUNCTION        0.29          0.902        0.198
  HS02004770           JUNCTION        0.21          0.720        0.000
  HS02004777           JUNCTION        0.21          0.780        0.000
  HS02004785           JUNCTION        0.17          0.790        0.000
  HS02004788           JUNCTION        0.16          0.720        0.000
  HS02004792           JUNCTION        0.26          0.900        0.000
  HS02004799           JUNCTION        0.35          1.060        0.000
  HS02004802           JUNCTION        0.30          0.794        0.416
  HS02004807           JUNCTION        0.28          0.788        0.432
  HS02004817           JUNCTION        0.74          1.166        0.574
  HS02004824           JUNCTION        0.16          0.724        0.586
  HS02004830           JUNCTION        0.13          0.681        0.649
  HS02004837           JUNCTION        0.07          0.608        0.732
  HS02004842           JUNCTION        0.22          0.913        0.607
  HS02004848           JUNCTION        0.04          0.574        0.796
  HS02004852           JUNCTION        0.06          0.750        0.670
  HS02004856           JUNCTION        0.06          0.561        0.739
  HS02004862           JUNCTION        0.10          1.127        0.173
  HS02004870           JUNCTION        0.13          1.400        0.000
  HS02004876           JUNCTION        0.20          1.246        0.314
  HS02004881           JUNCTION        0.18          1.352        0.098
  HS02004901           JUNCTION        0.22          0.720        0.000
  WS02004401           JUNCTION        1.37          0.744        0.916
  WS02004402           JUNCTION        1.40          0.693        1.047
  WS02004403           JUNCTION        1.41          0.623        1.407
  WS02004404           JUNCTION        1.59          0.635        2.145
  WS02004405           JUNCTION        1.55          0.585        2.215
  WS02004406           JUNCTION        1.51          0.470        1.980
  WS02004409           JUNCTION        0.57          0.303        2.057
  WS02004410           JUNCTION        0.52          0.221        2.319
  WS02004411           JUNCTION        0.47          0.147        2.383
  WS02004412           JUNCTION        0.39          0.065        2.245
  WS02004413           JUNCTION        0.95          0.120        2.080
  WS02006109           JUNCTION        1.98          1.820        0.000
  WS02006110           JUNCTION        1.81          1.431        0.419
  WS02006111           JUNCTION        0.88          0.796        1.074
  WS02006112           JUNCTION        1.85          1.680        0.000
  WS02006113           JUNCTION        0.91          0.936        0.994
  WS02006115           JUNCTION        1.26          0.810        1.440
  WS02006116           JUNCTION        1.28          0.762        1.528
  WS02006228           JUNCTION        1.97          2.183        0.017
  WS02006229           JUNCTION        0.49          1.007        0.063
  WS02006230           JUNCTION        1.71          1.570        0.000
  WS02006231           JUNCTION        1.80          1.488        0.042
  WS02006232           JUNCTION        1.92          1.480        0.000
  WS02006234           JUNCTION        1.83          1.240        0.000
  WS02006235           JUNCTION        1.86          1.290        0.000
  WS02006238           JUNCTION        1.88          1.311        0.119
  WS02006239           JUNCTION        1.85          1.140        0.150
  WS02006240           JUNCTION        1.84          0.978        0.412
  WS02006242           JUNCTION        1.87          0.820        0.000
  WS02006243           JUNCTION        1.83          0.688        0.082
  WS02006245           JUNCTION        1.82          0.613        0.237
  WS02006247           JUNCTION        1.82          0.596        0.164
  WS02006248           JUNCTION        1.81          0.380        0.000
  WS02006249           JUNCTION        1.82          0.390        0.000
  WS02006251           JUNCTION        1.73          1.165        0.015
  WS02006252           JUNCTION        2.20          1.100        0.000
  WS02006253           JUNCTION        1.75          2.353        0.127
  WS02006256           JUNCTION        7.81          2.050        0.000
  WS02006280           JUNCTION        0.38          0.651        0.129
  WS02006284           JUNCTION        0.31          0.575        0.225
  WS02006287           JUNCTION        0.24          0.574        0.316
  YS02001580           JUNCTION        0.12          0.450        0.000
  YS02001583           JUNCTION        0.14          0.500        0.000
  YS02001586           JUNCTION        0.31          0.510        0.000
  YS02001590           JUNCTION        0.37          0.750        0.000
  YS02001593           JUNCTION        0.38          0.725        0.115
  YS02001596           JUNCTION        0.47          0.959        0.111
  YS02001600           JUNCTION        0.59          1.190        0.000
  YS02001601           JUNCTION        0.93          1.440        0.000
  YS02001602           JUNCTION        0.81          1.270        0.000
  YS02001605           JUNCTION        0.76          1.180        0.000
  YS02001607           JUNCTION        0.31          0.644        0.036
  YS02001610           JUNCTION        0.34          0.680        0.000
  YS02001613           JUNCTION        0.30          0.679        0.021
  YS02001616           JUNCTION        0.26          0.610        0.000
  YS02001619           JUNCTION        0.25          0.610        0.000
  YS02001622           JUNCTION        0.24          0.620        0.000
  YS02001625           JUNCTION        0.42          0.780        0.000
  YS02001629           JUNCTION        0.15          0.470        0.000
  YS02001633           JUNCTION        0.43          0.780        0.280
  YS02001641           JUNCTION        0.33          0.396        0.704
  YS02001644           JUNCTION        0.28          0.247        0.673
  YS02001783           JUNCTION        0.23          0.309        1.291
  YS02001784           JUNCTION        0.20          0.225        1.265
  YS02001786           JUNCTION        0.05          0.023        1.407
  YS02001882           JUNCTION        0.17          0.358        0.472
  YS02001884           JUNCTION        0.18          0.393        0.477
  YS02001887           JUNCTION        0.22          0.482        0.468
  YS02001890           JUNCTION        0.24          0.509        0.251
  YS02001895           JUNCTION        0.16          0.308        0.442
  YS02001898           JUNCTION        0.15          0.283        0.457
  YS02001901           JUNCTION        0.21          0.436        0.434
  YS02001904           JUNCTION        0.20          0.403        0.447
  YS02001907           JUNCTION        0.40          0.733        0.217
  YS02001910           JUNCTION        0.26          0.545        0.555
  YS02001915           JUNCTION        0.17          0.360        0.640
  YS02001918           JUNCTION        0.01          0.027        0.783
  YS02001920           JUNCTION        0.06          0.074        1.066
  YS02006553           JUNCTION        0.42          0.733        0.457
  YS02006556           JUNCTION        0.34          0.634        0.716
  YS02006558           JUNCTION        0.33          0.603        0.797
  YS02163301           JUNCTION        0.41          0.843        0.187
  YS02163601           JUNCTION        0.45          0.671        0.409
  YS02164001           JUNCTION        0.34          0.490        0.610
  YSB1154              JUNCTION        0.44          1.232        0.168
  YSB1171              JUNCTION        0.45          1.100        0.000
  YSB1174              JUNCTION        0.39          1.111        0.139
  YSB6556              JUNCTION        0.34          1.085        0.015
  
  
  *********************
  Node Flooding Summary
  *********************
  
  Flooding refers to all water that overflows a node, whether it ponds or not.
  --------------------------------------------------------------------------
                                                             Total   Maximum
                                 Maximum   Time of Max       Flood    Ponded
                        Hours       Rate    Occurrence      Volume     Depth
  Node                 Flooded       LPS   days hr:min    10^6 ltr    Meters
  --------------------------------------------------------------------------
  HS02004770              0.04    128.54      0  02:02       0.007     0.000
  HS02004777              0.01     36.21      0  02:01       0.000     0.000
  HS02004785              0.01     72.68      0  02:01       0.000     0.000
  HS02004788              0.01    353.24      0  02:01       0.002     0.000
  HS02004792              0.01     57.40      0  02:02       0.001     0.000
  HS02004799              0.01      3.97      0  02:02       0.000     0.000
  HS02004870              0.01    172.06      0  02:04       0.000     0.000
  HS02004901              0.10    166.05      0  02:03       0.033     0.000
  WS02006109              0.04     49.19      0  02:06       0.002     0.000
  WS02006112              0.01   1153.65      0  00:00       0.035     0.000
  WS02006230              0.32    437.76      0  02:06       0.264     0.000
  WS02006232              0.08      1.28      0  02:19       0.000     0.000
  WS02006234              0.38    128.35      0  02:06       0.158     0.000
  WS02006235              0.01      6.92      0  02:30       0.000     0.000
  WS02006242              0.47    137.20      0  02:14       0.204     0.000
  WS02006248              0.79    341.00      0  02:00       0.689     0.000
  WS02006249              1.78   1227.67      0  02:06       2.529     0.000
  WS02006252              0.05    323.10      0  02:25       0.009     0.000
  WS02006256              1.03    263.10      0  02:30       0.539     0.000
  YS02001580              0.01    105.57      0  02:02       0.000     0.000
  YS02001583              0.01    121.74      0  02:02       0.000     0.000
  YS02001586              0.01     79.92      0  02:02       0.001     0.000
  YS02001590              0.01      4.39      0  02:02       0.000     0.000
  YS02001600              0.01      1.51      0  02:02       0.000     0.000
  YS02001601              0.24    341.03      0  02:04       0.175     0.000
  YS02001602              0.01     23.45      0  02:02       0.000     0.000
  YS02001605              0.01      6.01      0  02:01       0.000     0.000
  YS02001610              0.01     36.41      0  02:02       0.000     0.000
  YS02001616              0.01     15.08      0  02:01       0.000     0.000
  YS02001619              0.01     86.51      0  02:01       0.000     0.000
  YS02001622              0.01    184.21      0  02:01       0.000     0.000
  YS02001625              0.01     48.04      0  02:02       0.000     0.000
  YS02001629              0.01    195.65      0  02:02       0.001     0.000
  YSB1171                 0.01     46.04      0  02:02       0.000     0.000
  
  
  **********************
  Storage Volume Summary
  **********************
  
  ------------------------------------------------------------------------------------------------
                         Average    Avg   Evap  Exfil     Maximum    Max    Time of Max    Maximum
                          Volume   Pcnt   Pcnt   Pcnt      Volume   Pcnt     Occurrence    Outflow
  Storage Unit           1000 m   Full   Loss   Loss     1000 m   Full    days hr:min        LPS
  ------------------------------------------------------------------------------------------------
  CC-storage               0.379    5.9    0.0    0.0       2.230   34.8       0  00:00    1766.00
  JK-storage               0.004    1.4    0.0    0.0       0.193   66.3       0  02:10    1300.00
  XR-storage               0.956   66.4    0.0    0.0       1.111   77.2       0  08:00     190.00
  
  
  ***********************
  Outfall Loading Summary
  ***********************
  
  -----------------------------------------------------------
                         Flow       Avg       Max       Total
                         Freq      Flow      Flow      Volume
  Outfall Node           Pcnt       LPS       LPS    10^6 ltr
  -----------------------------------------------------------
  CC-1                  81.79    248.49    683.00       5.688
  CC-2                   2.83    366.99    683.00       0.415
  JK-1                  15.30    317.14   1000.00       1.198
  JK-2                  17.48     69.19   1000.00       0.529
  WSC                   99.99    511.17   1433.87      13.935
  -----------------------------------------------------------
  System                43.48   1512.98   3258.85      21.765
  
  
  ********************
  Link Flow Summary
  ********************
  
  -----------------------------------------------------------------------------
                                 Maximum  Time of Max   Maximum    Max/    Max/
                                  |Flow|   Occurrence   |Veloc|    Full    Full
  Link                 Type          LPS  days hr:min     m/sec    Flow   Depth
  -----------------------------------------------------------------------------
  1                    CONDUIT   1433.87     0  02:10      3.65    0.50    0.50
  HS02004478WS02006287 CONDUIT   2026.28     0  02:06      2.58    0.57    1.00
  HS02004479HS02004480 CONDUIT    364.79     0  02:02      0.52    0.35    1.00
  HS02004480HS02004478 CONDUIT   2061.82     0  02:02      2.95    8.68    1.00
  HS02004770HS02004777 CONDUIT    748.09     0  02:01      1.07    1.37    1.00
  HS02004777HS02004785 CONDUIT    757.30     0  02:01      1.15    0.93    1.00
  HS02004785HS02004788 CONDUIT    703.29     0  02:01      1.34    5.30    1.00
  HS02004788HS02004792 CONDUIT    847.04     0  02:02      1.47    0.56    1.00
  HS02004792HS02004799 CONDUIT   1567.26     0  02:02      2.24    0.96    1.00
  HS02004799HS02004480 CONDUIT   1721.71     0  02:02      2.46    2.18    1.00
  HS02004802HS02004478 CONDUIT    360.14     0  02:19      0.70    0.32    1.00
  HS02004807HS02004802 CONDUIT    342.45     0  02:19      0.62    0.65    1.00
  HS02004817HS02004807 CONDUIT    406.67     0  02:02      0.58    0.24    1.00
  HS02004817HS02004824 CONDUIT    406.31     0  02:02      0.58    0.18    1.00
  HS02004824HS02004830 CONDUIT    631.12     0  02:02      0.95    0.83    1.00
  HS02004830HS02004837 CONDUIT    634.97     0  02:02      1.00    0.63    1.00
  HS02004837HS02004842 CONDUIT    786.78     0  02:03      1.12    0.47    1.00
  HS02004842HS02004848 CONDUIT    787.32     0  02:03      1.25    0.46    1.00
  HS02004848HS02004852 CONDUIT    940.90     0  02:03      1.56    1.06    1.00
  HS02004852HS02004856 CONDUIT    904.28     0  02:03      1.44    1.03    1.00
  HS02004856HS02004862 CONDUIT    972.52     0  02:04      1.67    0.97    1.00
  HS02004862HS02004870 CONDUIT   1062.50     0  02:04      1.85    1.15    1.00
  HS02004870HS02004876 CONDUIT   1022.09     0  02:04      1.68    0.68    1.00
  HS02004876HS02004881 CONDUIT   1057.83     0  02:04      2.46   11.25    1.00
  HS02004881HS02006253 CONDUIT   1100.84     0  02:06      1.86    0.22    1.00
  HS02004901HS02004770 CONDUIT    150.52     0  02:01      0.22    0.57    1.00
  WS02001211WS02001212 CONDUIT    213.03     0  02:30      0.54    0.16    0.67
  WS02001212WS02001213 CONDUIT    217.31     0  02:29      1.04    0.34    0.54
  WS02001213WS02003059 CONDUIT    222.84     0  02:29      0.46    0.37    0.87
  WS02003059WS02003060 CONDUIT    228.56     0  02:28      0.64    0.15    0.79
  WS02003060WS02003069 CONDUIT   1431.99     0  02:09      2.06    0.56    0.59
  WS02003066WSF200     CONDUIT   1225.35     0  02:04      3.25    0.21    0.37
  WS02003067WS02003066 CONDUIT   1225.48     0  02:04      1.94    0.39    0.55
  WS02003069WS02003072 CONDUIT   1432.14     0  02:09      1.86    0.69    0.64
  WS02003072WS02003073 CONDUIT   1432.08     0  02:09      2.01    3.09    0.60
  WS02004138WS02004139 CONDUIT    190.00     0  00:32      2.16    0.04    0.41
  WS02004139WS02001211 CONDUIT    198.16     0  02:30      0.54    0.25    0.59
  WS02004401WS02004402 CONDUIT   1227.09     0  02:03      2.07    1.47    1.00
  WS02004402WS02004403 CONDUIT   1227.81     0  02:03      1.84    1.76    1.00
  WS02004403WS02004404 CONDUIT   1228.91     0  02:03      1.68    0.89    1.00
  WS02004404WS02004405 CONDUIT   1230.60     0  02:03      1.86   12.06    1.00
  WS02004405WS02004406 CONDUIT   1231.88     0  02:03      1.80    2.43    1.00
  WS02004406WS02004407 CONDUIT   1232.42     0  02:03      1.72    0.55    0.90
  WS02004407WS02004409 CONDUIT   1225.36     0  02:04      1.83    0.43    0.90
  WS02004409WS02004410 CONDUIT   1225.36     0  02:04      1.56    1.58    1.00
  WS02004410WS02004411 CONDUIT   1225.40     0  02:04      1.56    1.67    1.00
  WS02004411WS02004412 CONDUIT   1225.30     0  02:04      1.56    1.74    1.00
  WS02004412WS02004413 CONDUIT   1225.27     0  02:04      1.56    0.82    1.00
  WS02004413WS02003067 CONDUIT   1225.27     0  02:04      1.92    0.52    0.76
  WS02006109WS02006110 CONDUIT   1306.78     0  00:00      3.15    2.51    1.00
  WS02006110WS02006113 CONDUIT   1119.40     0  02:07      2.23    1.02    1.00
  WS02006111WS02006112 CONDUIT   2307.30     0  00:00      9.18    1.10    1.00
  WS02006112WS02006115 CONDUIT   2152.75     0  00:00      2.85    1.27    1.00
  WS02006113WS02006111 CONDUIT   1176.04     0  00:00      2.74    1.41    1.00
  WS02006115WS02006116 CONDUIT   1227.38     0  02:03      1.81    1.58    1.00
  WS02006116WS02004401 CONDUIT   1226.74     0  02:03      2.21    1.69    1.00
  WS02006228WS02006109 CONDUIT   1159.67     0  02:06      2.31    5.07    1.00
  WS02006229WS02006228 CONDUIT   1159.13     0  02:06      2.31    3.84    1.00
  WS02006230WS02006229 CONDUIT    880.69     0  02:06      2.29   19.60    1.00
  WS02006231WS02006230 CONDUIT    453.26     0  02:07      1.37    6.88    1.00
  WS02006232WS02006231 CONDUIT    453.51     0  02:19      1.18    0.95    1.00
  WS02006234WS02006232 CONDUIT    453.05     0  02:07      1.35    0.92    1.00
  WS02006235WS02006234 CONDUIT    442.94     0  03:32      1.29    4.67    1.00
  WS02006238WS02006235 CONDUIT    415.63     0  02:07      1.62    0.93    1.00
  WS02006239WS02006238 CONDUIT    415.01     0  02:06      1.25    1.33    1.00
  WS02006240WS02006239 CONDUIT    414.85     0  02:06      1.31    1.31    1.00
  WS02006242WS02006240 CONDUIT    414.92     0  02:14      1.15    1.65    1.00
  WS02006243WS02006242 CONDUIT    405.61     0  01:44      1.40    0.87    1.00
  WS02006245WS02006243 CONDUIT    421.31     0  01:44      1.40    1.25    1.00
  WS02006247WS02006245 CONDUIT    432.12     0  01:44      1.38    3.43    1.00
  WS02006248WS02006247 CONDUIT    439.84     0  01:44      1.39    0.96    1.00
  WS02006249WS02006248 CONDUIT    450.57     0  01:45      1.38    2.47    1.00
  WS02006251WS02006249 CONDUIT   1289.67     0  02:06      3.39    3.72    1.00
  WS02006252WS02006251 CONDUIT    412.14     0  02:25      4.86    1.51    1.00
  WS02006253WS02006251 CONDUIT   1115.75     0  02:06      2.90    3.35    1.00
  WS02006256WS02006235 CONDUIT    282.59     0  06:15      4.08    2.99    1.00
  WS02006280WS02006229 CONDUIT   2036.85     0  02:06      3.63    0.43    1.00
  WS02006284WS02006280 CONDUIT   2033.60     0  02:06      3.03    0.85    1.00
  WS02006287WS02006284 CONDUIT   2031.38     0  02:06      2.76    0.94    1.00
  WSF200WS02003060     CONDUIT   1224.61     0  02:05      2.29    0.27    0.48
  YS02001580YS02001583 CONDUIT    124.88     0  02:02      0.79    0.48    1.00
  YS02001583YS02001586 CONDUIT    167.40     0  02:01      0.78    0.25    1.00
  YS02001586YS02001590 CONDUIT    266.14     0  02:05      1.27    0.47    1.00
  YS02001590YS02001593 CONDUIT    266.03     0  02:05      1.03    1.67    1.00
  YS02001593YS02001596 CONDUIT    266.20     0  02:05      1.69    0.42    1.00
  YS02001596YS02001600 CONDUIT    266.16     0  02:05      1.18    0.52    1.00
  YS02001600YS02001601 CONDUIT    266.11     0  02:05      0.94    0.46    1.00
  YS02001601YS02001602 CONDUIT    549.36     0  02:01      1.94    1.98    1.00
  YS02001602YS02001605 CONDUIT    549.66     0  02:01      1.94   11.63    1.00
  YS02001605YS02001607 CONDUIT    550.47     0  02:01      1.95    3.02    1.00
  YS02001607YS02001610 CONDUIT    542.86     0  02:01      0.69    0.52    1.00
  YS02001610YS02001613 CONDUIT    550.72     0  02:01      0.70    0.64    1.00
  YS02001613YS02001616 CONDUIT    563.57     0  02:01      0.72    0.48    1.00
  YS02001616YS02001619 CONDUIT    524.64     0  02:01      0.68    0.91    1.00
  YS02001619YS02001622 CONDUIT    957.25     0  02:01      1.24    1.41    1.00
  YS02001622YS02001625 CONDUIT    941.80     0  02:02      1.20    0.50    1.00
  YS02001625YS02001629 CONDUIT    941.80     0  02:02      1.20    0.45    1.00
  YS02001629YS02163301 CONDUIT    898.60     0  02:05      1.14    1.11    1.00
  YS02001633YS02163601 CONDUIT   1273.12     0  02:03      1.62    1.34    1.00
  YS02001641YS02001644 CONDUIT   1274.39     0  02:03      1.62    4.12    1.00
  YS02001644YS02001647 CONDUIT   1610.98     0  02:03      2.18    0.95    0.93
  YS02001647YS02001649 CONDUIT   1656.48     0  02:04      2.31    0.87    0.91
  YS02001649YS02001757 CONDUIT   1955.90     0  02:04      2.55    1.19    0.98
  YS02001652YS02001649 CONDUIT    405.53     0  02:03      0.76    0.20    0.87
  YS02001655YS02001652 CONDUIT    404.51     0  02:03      1.36    0.20    0.62
  YS02001658YS02001655 CONDUIT    337.98     0  02:03      1.98    0.14    0.38
  YS02001661YS02001658 CONDUIT    324.23     0  02:03      2.15    0.13    0.25
  YS02001664YS02001661 CONDUIT    324.46     0  02:03      1.96    0.10    0.26
  YS02001745YS02001748 CONDUIT    222.25     0  02:02      2.02    0.09    0.20
  YS02001748YS02001751 CONDUIT    222.35     0  02:02      1.70    0.11    0.27
  YS02001751YS02001754 CONDUIT    296.91     0  02:07      1.46    0.14    0.45
  YS02001754YS02001757 CONDUIT    362.33     0  02:11      0.61    0.15    0.80
  YS02001757CaochengTiaoxuchi CONDUIT   2756.87     0  02:07      6.46    1.19    0.68
  YS02001759YS02001757 CONDUIT    712.36     0  02:07      0.97    0.51    0.92
  YS02001762YS02001759 CONDUIT    467.48     0  02:07      0.67    0.54    0.85
  YS02001765YS02001762 CONDUIT    443.38     0  02:06      0.68    0.42    0.82
  YS02001767YS02001765 CONDUIT    449.49     0  02:06      0.72    0.57    0.79
  YS02001770YS02001767 CONDUIT    453.67     0  02:06      0.77    1.80    0.78
  YS02001774YS02001770 CONDUIT     90.31     0  02:04      0.17    0.06    0.82
  YS02001779YS02001774 CONDUIT     56.73     0  02:13      0.12    0.03    0.74
  YS02001783YS02001784 CONDUIT   1078.29     0  02:06      2.15    1.49    1.00
  YS02001784YS02001785 CONDUIT   1078.93     0  02:08      2.15    2.51    1.00
  YS02001786YS02001788 CONDUIT   1078.87     0  02:08      2.35    2.08    0.87
  YS02001788YS02001790 CONDUIT   1086.23     0  02:08      2.59    0.80    0.80
  YS02001790YS02001791 CONDUIT   1189.78     0  02:08      3.33    1.29    0.67
  YS02001791YS02001793 CONDUIT   1128.24     0  02:08      6.60    0.48    0.39
  YS02001793JiankangQianchi CONDUIT   1126.66     0  02:08     21.61    0.09    0.60
  YS02001882YS02001884 CONDUIT     36.52     0  02:02      0.08    0.04    1.00
  YS02001884YS02001887 CONDUIT     77.83     0  02:02      0.10    0.10    1.00
  YS02001887YS02001890 CONDUIT    339.67     0  02:03      0.43    0.58    1.00
  YS02001890YS02001895 CONDUIT    338.45     0  02:03      0.43    0.16    1.00
  YS02001895YS02001898 CONDUIT    341.06     0  02:03      0.43    0.59    1.00
  YS02001898YS02001901 CONDUIT    350.17     0  02:03      0.45    0.23    1.00
  YS02001901YS02001904 CONDUIT    350.03     0  02:03      0.45    0.54    1.00
  YS02001904YS02001907 CONDUIT    346.04     0  02:03      0.44    0.12    1.00
  YS02001907YS02006553 CONDUIT    755.32     0  02:11      0.84    0.89    1.00
  YS02001910YS02001907 CONDUIT    579.36     0  02:11      0.74    0.33    1.00
  YS02001915YS02001910 CONDUIT    578.94     0  02:11      0.74    0.29    1.00
  YS02001918YS02001915 CONDUIT    307.74     0  02:12      0.44    0.17    1.00
  YS02001920YS02001918 CONDUIT    276.22     0  02:12      0.63    0.27    1.00
  YS02001923YS02001920 CONDUIT    246.05     0  02:12      0.73    0.11    0.91
  YS02001926YS02001923 CONDUIT    215.43     0  02:10      0.94    0.31    0.62
  YS02001929YS02001926 CONDUIT    208.50     0  02:07      1.05    0.10    0.50
  YS02006553YS02006556 CONDUIT    754.29     0  02:11      0.96    0.65    1.00
  YS02006556YS02006558 CONDUIT    756.02     0  02:11      0.96    0.60    1.00
  YS02006558YS02006561 CONDUIT   1094.05     0  02:06      3.87    2.42    1.00
  YS02006561YS02001783 CONDUIT   1078.34     0  02:06      2.27    0.56    0.94
  YS02163301YS02001633 CONDUIT    898.24     0  02:05      1.14    0.84    1.00
  YS02163601YS02164001 CONDUIT   1273.33     0  02:03      1.62    1.13    1.00
  YS02164001YS02001641 CONDUIT   1273.83     0  02:03      1.62    1.74    1.00
  YSB1154YSB6556       CONDUIT    178.42     0  02:03      0.46    0.32    1.00
  YSB1171HS02004479    CONDUIT    356.27     0  02:02      0.71    0.24    1.00
  YSB1174YSB1171       CONDUIT    162.76     0  02:02      0.42    0.25    1.00
  YSB6556YSB1171       CONDUIT    185.88     0  02:02      0.48    0.19    1.00
  CC-R1                PUMP       683.00     0  00:05              1.00
  CC-R2                PUMP       683.00     0  00:30              1.00
  CC-S1                PUMP       200.00     0  00:05              1.00
  CC-S2                PUMP       200.00     0  00:05              1.00
  JK-R1                PUMP      1000.00     0  02:04              1.00
  JK-R2                PUMP      1000.00     0  00:05              1.00
  JK-S                 PUMP       300.00     0  01:55              1.00
  XR-1                 PUMP        95.00     0  00:10              1.00
  XR-2                 PUMP        95.00     0  00:29              1.00
  XR-3                 PUMP         0.00     0  00:00              0.00
  XR-4                 PUMP         0.00     0  00:00              0.00
  
  
  ***************************
  Flow Classification Summary
  ***************************
  
  -------------------------------------------------------------------------------------
                      Adjusted    ---------- Fraction of Time in Flow Class ---------- 
                       /Actual         Up    Down  Sub   Sup   Up    Down  Norm  Inlet 
  Conduit               Length    Dry  Dry   Dry   Crit  Crit  Crit  Crit  Ltd   Ctrl  
  -------------------------------------------------------------------------------------
  1                       1.00   0.00  0.00  0.00  0.00  1.00  0.00  0.00  0.37  0.00
  HS02004478WS02006287    1.00   0.17  0.00  0.00  0.66  0.17  0.00  0.00  0.63  0.00
  HS02004479HS02004480    1.00   0.04  0.00  0.00  0.96  0.00  0.00  0.00  0.12  0.00
  HS02004480HS02004478    1.00   0.13  0.00  0.00  0.59  0.00  0.00  0.28  0.00  0.00
  HS02004770HS02004777    1.00   0.00  0.13  0.00  0.87  0.00  0.00  0.00  0.03  0.00
  HS02004777HS02004785    1.00   0.00  0.00  0.00  1.00  0.00  0.00  0.00  0.14  0.00
  HS02004785HS02004788    1.00   0.00  0.00  0.00  1.00  0.00  0.00  0.00  0.00  0.00
  HS02004788HS02004792    1.00   0.00  0.00  0.00  0.99  0.01  0.00  0.00  0.95  0.00
  HS02004792HS02004799    1.00   0.00  0.00  0.00  0.99  0.01  0.00  0.00  0.92  0.00
  HS02004799HS02004480    1.00   0.00  0.03  0.00  0.83  0.00  0.13  0.00  0.00  0.00
  HS02004802HS02004478    1.00   0.13  0.01  0.00  0.86  0.00  0.00  0.00  0.03  0.00
  HS02004807HS02004802    1.00   0.13  0.00  0.00  0.85  0.00  0.00  0.02  0.00  0.00
  HS02004817HS02004807    1.00   0.00  0.13  0.00  0.87  0.00  0.00  0.00  0.01  0.00
  HS02004817HS02004824    1.00   0.00  0.00  0.00  1.00  0.00  0.00  0.00  0.88  0.00
  HS02004824HS02004830    1.00   0.00  0.00  0.00  1.00  0.00  0.00  0.00  0.01  0.00
  HS02004830HS02004837    1.00   0.00  0.00  0.00  1.00  0.00  0.00  0.00  0.93  0.00
  HS02004837HS02004842    1.00   0.00  0.00  0.00  0.99  0.01  0.00  0.00  0.11  0.00
  HS02004842HS02004848    1.00   0.00  0.13  0.00  0.87  0.00  0.00  0.00  0.60  0.00
  HS02004848HS02004852    1.00   0.13  0.00  0.00  0.87  0.00  0.00  0.00  0.73  0.00
  HS02004852HS02004856    1.00   0.13  0.02  0.00  0.86  0.00  0.00  0.00  0.73  0.00
  HS02004856HS02004862    1.00   0.00  0.19  0.00  0.81  0.00  0.00  0.00  0.77  0.00
  HS02004862HS02004870    1.00   0.00  0.00  0.00  1.00  0.00  0.00  0.00  0.05  0.00
  HS02004870HS02004876    1.00   0.00  0.00  0.00  1.00  0.00  0.00  0.00  0.91  0.00
  HS02004876HS02004881    1.00   0.01  0.00  0.00  0.86  0.13  0.00  0.00  0.00  0.00
  HS02004881HS02006253    1.00   0.02  0.02  0.00  0.32  0.01  0.00  0.62  0.29  0.00
  HS02004901HS02004770    1.00   0.13  0.00  0.00  0.87  0.00  0.00  0.00  0.00  0.00
  WS02001211WS02001212    1.00   0.00  0.02  0.00  0.98  0.00  0.00  0.00  0.00  0.00
  WS02001212WS02001213    1.00   0.02  0.00  0.00  0.31  0.00  0.66  0.00  0.00  0.00
  WS02001213WS02003059    1.00   0.00  0.01  0.00  0.99  0.00  0.00  0.00  0.00  0.00
  WS02003059WS02003060    1.00   0.00  0.00  0.00  1.00  0.00  0.00  0.00  0.03  0.00
  WS02003060WS02003069    1.00   0.00  0.00  0.00  0.97  0.03  0.00  0.00  0.37  0.00
  WS02003066WSF200        1.00   0.05  0.00  0.00  0.00  0.95  0.00  0.00  0.71  0.00
  WS02003067WS02003066    1.00   0.05  0.00  0.00  0.95  0.00  0.00  0.00  0.00  0.00
  WS02003069WS02003072    1.00   0.00  0.00  0.00  0.99  0.01  0.00  0.00  0.60  0.00
  WS02003072WS02003073    1.00   0.00  0.00  0.00  0.00  0.00  0.00  1.00  0.00  0.00
  WS02004138WS02004139    1.00   0.02  0.00  0.00  0.97  0.01  0.00  0.00  0.98  0.00
  WS02004139WS02001211    1.00   0.00  0.01  0.00  0.99  0.00  0.00  0.00  0.00  0.00
  WS02004401WS02004402    1.00   0.00  0.00  0.00  1.00  0.00  0.00  0.00  0.00  0.00
  WS02004402WS02004403    1.00   0.00  0.00  0.00  1.00  0.00  0.00  0.00  0.00  0.00
  WS02004403WS02004404    1.00   0.00  0.00  0.00  1.00  0.00  0.00  0.00  0.00  0.00
  WS02004404WS02004405    1.00   0.00  0.00  0.00  1.00  0.00  0.00  0.00  0.00  0.00
  WS02004405WS02004406    1.00   0.00  0.00  0.00  1.00  0.00  0.00  0.00  0.00  0.00
  WS02004406WS02004407    1.00   0.00  0.01  0.00  0.99  0.00  0.00  0.00  0.01  0.00
  WS02004407WS02004409    1.00   0.01  0.00  0.00  0.98  0.01  0.00  0.00  0.91  0.00
  WS02004409WS02004410    1.00   0.01  0.00  0.00  0.99  0.00  0.00  0.00  0.00  0.00
  WS02004410WS02004411    1.00   0.01  0.00  0.00  0.99  0.00  0.00  0.00  0.00  0.00
  WS02004411WS02004412    1.00   0.01  0.00  0.00  0.99  0.00  0.00  0.00  0.00  0.00
  WS02004412WS02004413    1.00   0.01  0.00  0.00  0.99  0.00  0.00  0.00  0.01  0.00
  WS02004413WS02003067    1.00   0.01  0.03  0.00  0.00  0.00  0.95  0.00  0.00  0.00
  WS02006109WS02006110    1.00   0.00  0.00  0.00  1.00  0.00  0.00  0.00  0.00  0.00
  WS02006110WS02006113    1.00   0.00  0.00  0.00  1.00  0.00  0.00  0.00  0.00  0.00
  WS02006111WS02006112    1.00   0.00  0.00  0.00  1.00  0.00  0.00  0.00  0.81  0.00
  WS02006112WS02006115    1.00   0.00  0.00  0.00  1.00  0.00  0.00  0.00  0.00  0.00
  WS02006113WS02006111    1.00   0.00  0.00  0.00  0.16  0.84  0.00  0.00  0.10  0.00
  WS02006115WS02006116    1.00   0.00  0.00  0.00  1.00  0.00  0.00  0.00  0.00  0.00
  WS02006116WS02004401    1.00   0.00  0.00  0.00  1.00  0.00  0.00  0.00  0.00  0.00
  WS02006228WS02006109    1.00   0.00  0.00  0.00  1.00  0.00  0.00  0.00  0.00  0.00
  WS02006229WS02006228    1.00   0.00  0.00  0.00  1.00  0.00  0.00  0.00  0.00  0.00
  WS02006230WS02006229    1.00   0.00  0.00  0.00  1.00  0.00  0.00  0.00  0.01  0.00
  WS02006231WS02006230    1.00   0.00  0.00  0.00  0.28  0.00  0.72  0.00  0.00  0.00
  WS02006232WS02006231    1.00   0.00  0.00  0.00  0.99  0.00  0.00  0.00  0.01  0.00
  WS02006234WS02006232    1.00   0.00  0.01  0.00  0.99  0.00  0.00  0.00  0.01  0.00
  WS02006235WS02006234    1.00   0.02  0.00  0.00  0.98  0.00  0.00  0.00  0.00  0.00
  WS02006238WS02006235    1.00   0.02  0.00  0.00  0.98  0.00  0.00  0.00  0.00  0.00
  WS02006239WS02006238    1.00   0.02  0.00  0.00  0.98  0.00  0.00  0.00  0.00  0.00
  WS02006240WS02006239    1.00   0.02  0.00  0.00  0.95  0.00  0.00  0.03  0.00  0.00
  WS02006242WS02006240    1.00   0.01  0.00  0.00  0.98  0.00  0.00  0.00  0.00  0.00
  WS02006243WS02006242    1.00   0.01  0.00  0.00  0.98  0.00  0.00  0.01  0.53  0.00
  WS02006245WS02006243    1.00   0.01  0.00  0.00  0.95  0.00  0.00  0.04  0.00  0.00
  WS02006247WS02006245    1.00   0.01  0.00  0.00  0.98  0.00  0.00  0.01  0.00  0.00
  WS02006248WS02006247    1.00   0.01  0.00  0.00  0.98  0.00  0.00  0.01  0.48  0.00
  WS02006249WS02006248    1.00   0.00  0.01  0.00  0.52  0.00  0.47  0.00  0.00  0.00
  WS02006251WS02006249    1.00   0.00  0.00  0.00  1.00  0.00  0.00  0.00  0.45  0.00
  WS02006252WS02006251    1.00   0.02  0.02  0.00  0.22  0.00  0.74  0.00  0.00  0.00
  WS02006253WS02006251    1.00   0.01  0.00  0.00  0.99  0.00  0.00  0.00  0.00  0.00
  WS02006256WS02006235    1.00   0.02  0.00  0.00  0.98  0.00  0.00  0.00  0.00  0.00
  WS02006280WS02006229    1.00   0.14  0.00  0.00  0.11  0.05  0.00  0.70  0.02  0.00
  WS02006284WS02006280    1.00   0.14  0.00  0.00  0.05  0.01  0.00  0.80  0.00  0.00
  WS02006287WS02006284    1.00   0.10  0.07  0.00  0.55  0.28  0.00  0.00  0.67  0.00
  WSF200WS02003060        1.00   0.00  0.05  0.00  0.68  0.27  0.00  0.00  0.63  0.00
  YS02001580YS02001583    1.00   0.25  0.61  0.00  0.14  0.00  0.00  0.00  0.70  0.00
  YS02001583YS02001586    1.00   0.45  0.36  0.00  0.19  0.00  0.00  0.00  0.70  0.00
  YS02001586YS02001590    1.00   0.13  0.00  0.00  0.37  0.05  0.00  0.46  0.36  0.00
  YS02001590YS02001593    1.00   0.13  0.01  0.00  0.06  0.00  0.80  0.00  0.00  0.00
  YS02001593YS02001596    1.00   0.14  0.00  0.00  0.07  0.01  0.00  0.78  0.02  0.00
  YS02001596YS02001600    1.00   0.14  0.00  0.00  0.14  0.02  0.00  0.70  0.06  0.00
  YS02001600YS02001601    1.00   0.13  0.01  0.00  0.86  0.00  0.00  0.00  0.65  0.00
  YS02001601YS02001602    1.00   0.13  0.01  0.00  0.86  0.00  0.00  0.00  0.00  0.00
  YS02001602YS02001605    1.00   0.14  0.00  0.00  0.86  0.00  0.00  0.00  0.00  0.00
  YS02001605YS02001607    1.00   0.14  0.00  0.00  0.86  0.00  0.00  0.00  0.00  0.00
  YS02001607YS02001610    1.00   0.13  0.01  0.00  0.86  0.00  0.00  0.00  0.02  0.00
  YS02001610YS02001613    1.00   0.13  0.00  0.00  0.87  0.00  0.00  0.00  0.01  0.00
  YS02001613YS02001616    1.00   0.13  0.00  0.00  0.87  0.00  0.00  0.00  0.01  0.00
  YS02001616YS02001619    1.00   0.13  0.00  0.00  0.87  0.00  0.00  0.00  0.00  0.00
  YS02001619YS02001622    1.00   0.13  0.00  0.00  0.87  0.00  0.00  0.00  0.31  0.00
  YS02001622YS02001625    1.00   0.13  0.00  0.00  0.87  0.00  0.00  0.00  0.06  0.00
  YS02001625YS02001629    1.00   0.13  0.06  0.00  0.10  0.00  0.71  0.00  0.00  0.00
  YS02001629YS02163301    1.00   0.17  0.01  0.00  0.82  0.00  0.00  0.00  0.00  0.00
  YS02001633YS02163601    1.00   0.00  0.01  0.00  0.99  0.00  0.00  0.00  0.16  0.00
  YS02001641YS02001644    1.00   0.00  0.01  0.00  0.99  0.00  0.00  0.00  0.00  0.00
  YS02001644YS02001647    1.00   0.00  0.19  0.00  0.81  0.00  0.00  0.00  0.00  0.00
  YS02001647YS02001649    1.00   0.00  0.19  0.00  0.48  0.33  0.00  0.00  0.59  0.00
  YS02001649YS02001757    1.00   0.00  0.00  0.00  0.85  0.15  0.00  0.00  0.87  0.00
  YS02001652YS02001649    1.00   0.00  0.00  0.00  0.95  0.05  0.00  0.00  0.79  0.00
  YS02001655YS02001652    1.00   0.00  0.00  0.00  0.11  0.02  0.00  0.87  0.08  0.00
  YS02001658YS02001655    1.00   0.00  0.15  0.00  0.57  0.28  0.00  0.00  0.77  0.00
  YS02001661YS02001658    1.00   0.15  0.00  0.00  0.41  0.44  0.00  0.00  0.75  0.00
  YS02001664YS02001661    1.00   0.13  0.00  0.00  0.77  0.10  0.00  0.00  0.87  0.00
  YS02001745YS02001748    1.00   0.00  0.00  0.00  0.00  0.00  0.00  1.00  0.00  0.00
  YS02001748YS02001751    1.00   0.00  0.00  0.00  0.75  0.25  0.00  0.00  0.84  0.00
  YS02001751YS02001754    1.00   0.00  0.00  0.00  0.06  0.01  0.00  0.93  0.04  0.00
  YS02001754YS02001757    1.00   0.00  0.00  0.00  1.00  0.00  0.00  0.00  0.92  0.00
  YS02001757CaochengTiaoxuchi    1.00   0.00  0.00  0.00  0.20  0.80  0.00  0.00  0.24  0.00
  YS02001759YS02001757    1.00   0.00  0.00  0.00  1.00  0.00  0.00  0.00  0.72  0.00
  YS02001762YS02001759    1.00   0.00  0.00  0.00  1.00  0.00  0.00  0.00  0.08  0.00
  YS02001765YS02001762    1.00   0.00  0.00  0.00  1.00  0.00  0.00  0.00  0.78  0.00
  YS02001767YS02001765    1.00   0.00  0.00  0.00  1.00  0.00  0.00  0.00  0.00  0.00
  YS02001770YS02001767    1.00   0.00  0.00  0.00  1.00  0.00  0.00  0.00  0.00  0.00
  YS02001774YS02001770    1.00   0.00  0.14  0.00  0.68  0.00  0.18  0.00  0.04  0.00
  YS02001779YS02001774    1.00   0.00  0.00  0.00  1.00  0.00  0.00  0.00  0.84  0.00
  YS02001783YS02001784    1.00   0.00  0.20  0.00  0.80  0.00  0.00  0.00  0.57  0.00
  YS02001784YS02001785    1.00   0.00  0.00  0.00  1.00  0.00  0.00  0.00  0.19  0.00
  YS02001786YS02001788    1.00   0.00  0.00  0.00  0.79  0.21  0.00  0.00  0.00  0.00
  YS02001788YS02001790    1.00   0.00  0.00  0.00  0.21  0.79  0.00  0.00  0.86  0.00
  YS02001790YS02001791    1.00   0.00  0.00  0.00  0.01  0.99  0.00  0.00  0.15  0.00
  YS02001791YS02001793    1.00   0.00  0.00  0.00  0.00  1.00  0.00  0.00  0.00  0.00
  YS02001793JiankangQianchi    1.00   0.00  0.00  0.00  0.04  0.96  0.00  0.00  0.07  0.00
  YS02001882YS02001884    1.00   0.16  0.01  0.00  0.82  0.00  0.00  0.00  0.00  0.00
  YS02001884YS02001887    1.00   0.06  0.05  0.00  0.89  0.00  0.00  0.00  0.00  0.00
  YS02001887YS02001890    1.00   0.00  0.00  0.00  0.97  0.00  0.03  0.00  0.00  0.00
  YS02001890YS02001895    1.00   0.00  0.18  0.00  0.82  0.00  0.00  0.00  0.00  0.00
  YS02001895YS02001898    1.00   0.18  0.00  0.00  0.80  0.00  0.02  0.00  0.00  0.00
  YS02001898YS02001901    1.00   0.18  0.01  0.00  0.81  0.00  0.00  0.00  0.01  0.00
  YS02001901YS02001904    1.00   0.18  0.00  0.00  0.82  0.00  0.00  0.00  0.00  0.00
  YS02001904YS02001907    1.00   0.00  0.18  0.00  0.82  0.00  0.00  0.00  0.00  0.00
  YS02001907YS02006553    1.00   0.00  0.02  0.00  0.98  0.00  0.00  0.00  0.00  0.00
  YS02001910YS02001907    1.00   0.00  0.00  0.00  0.97  0.00  0.00  0.03  0.12  0.00
  YS02001915YS02001910    1.00   0.00  0.00  0.00  0.96  0.04  0.00  0.00  0.18  0.00
  YS02001918YS02001915    1.00   0.00  0.00  0.00  0.98  0.02  0.00  0.00  0.80  0.00
  YS02001920YS02001918    1.00   0.00  0.00  0.00  1.00  0.00  0.00  0.00  0.01  0.00
  YS02001923YS02001920    1.00   0.00  0.00  0.00  1.00  0.00  0.00  0.00  0.96  0.00
  YS02001926YS02001923    1.00   0.00  0.07  0.00  0.02  0.00  0.90  0.00  0.00  0.00
  YS02001929YS02001926    1.00   0.00  0.13  0.00  0.87  0.00  0.00  0.00  0.86  0.00
  YS02006553YS02006556    1.00   0.01  0.00  0.00  0.99  0.00  0.00  0.00  0.03  0.00
  YS02006556YS02006558    1.00   0.00  0.00  0.00  1.00  0.00  0.00  0.00  0.00  0.00
  YS02006558YS02006561    1.00   0.20  0.00  0.00  0.02  0.79  0.00  0.00  0.20  0.00
  YS02006561YS02001783    1.00   0.20  0.00  0.00  0.05  0.75  0.00  0.00  0.72  0.00
  YS02163301YS02001633    1.00   0.00  0.17  0.00  0.83  0.00  0.00  0.00  0.00  0.00
  YS02163601YS02164001    1.00   0.00  0.08  0.00  0.92  0.00  0.00  0.00  0.00  0.00
  YS02164001YS02001641    1.00   0.01  0.07  0.00  0.92  0.00  0.00  0.00  0.06  0.00
  YSB1154YSB6556          1.00   0.12  0.00  0.00  0.88  0.00  0.00  0.00  0.02  0.00
  YSB1171HS02004479       1.00   0.04  0.00  0.00  0.95  0.00  0.00  0.01  0.11  0.00
  YSB1174YSB1171          1.00   0.05  0.04  0.00  0.91  0.00  0.00  0.00  0.00  0.00
  YSB6556YSB1171          1.00   0.04  0.08  0.00  0.88  0.00  0.00  0.00  0.00  0.00
  
  
  *************************
  Conduit Surcharge Summary
  *************************
  
  ----------------------------------------------------------------------------
                                                           Hours        Hours 
                         --------- Hours Full --------   Above Full   Capacity
  Conduit                Both Ends  Upstream  Dnstream   Normal Flow   Limited
  ----------------------------------------------------------------------------
  HS02004478WS02006287        0.14      0.14      0.29      0.01         0.01
  HS02004479HS02004480        0.30      0.30      0.31      0.01         0.01
  HS02004480HS02004478        0.24      0.29      0.24      1.30         0.24
  HS02004770HS02004777        0.21      0.21      0.21      0.17         0.11
  HS02004777HS02004785        0.17      0.17      0.21      0.01         0.01
  HS02004785HS02004788        0.16      0.17      0.16      0.92         0.15
  HS02004788HS02004792        0.16      0.16      0.26      0.01         0.01
  HS02004792HS02004799        0.26      0.26      0.35      0.01         0.01
  HS02004799HS02004480        0.29      0.29      0.35      0.42         0.01
  HS02004802HS02004478        0.25      0.25      0.30      0.01         0.01
  HS02004807HS02004802        0.28      0.28      0.30      0.01         0.01
  HS02004817HS02004807        0.28      0.28      0.74      0.01         0.01
  HS02004817HS02004824        0.16      0.16      0.74      0.01         0.01
  HS02004824HS02004830        0.13      0.13      0.16      0.01         0.01
  HS02004830HS02004837        0.07      0.07      0.13      0.01         0.01
  HS02004837HS02004842        0.07      0.07      0.22      0.01         0.01
  HS02004842HS02004848        0.04      0.04      0.22      0.01         0.01
  HS02004848HS02004852        0.04      0.04      0.06      0.01         0.01
  HS02004852HS02004856        0.06      0.06      0.09      0.01         0.01
  HS02004856HS02004862        0.06      0.06      0.10      0.01         0.01
  HS02004862HS02004870        0.10      0.10      0.13      0.01         0.01
  HS02004870HS02004876        0.13      0.13      0.20      0.01         0.01
  HS02004876HS02004881        0.18      0.20      0.18      0.95         0.18
  HS02004881HS02006253        0.18      0.18      1.75      0.01         0.01
  HS02004901HS02004770        0.21      0.21      0.22      0.01         0.01
  WS02003072WS02003073        0.01      0.01      0.01      2.45         0.01
  WS02004401WS02004402        1.37      1.37      1.40      1.09         1.09
  WS02004402WS02004403        1.40      1.40      1.41      1.36         1.35
  WS02004403WS02004404        1.41      1.41      1.59      0.01         0.01
  WS02004404WS02004405        1.55      1.59      1.55      4.00         1.55
  WS02004405WS02004406        1.51      1.55      1.51      1.82         1.51
  WS02004406WS02004407        0.01      0.01      1.51      0.01         0.01
  WS02004407WS02004409        0.01      0.01      0.57      0.01         0.01
  WS02004409WS02004410        0.52      0.57      0.52      1.24         0.52
  WS02004410WS02004411        0.47      0.52      0.47      1.31         0.47
  WS02004411WS02004412        0.39      0.47      0.39      1.34         0.39
  WS02004412WS02004413        0.39      0.39      0.95      0.01         0.01
  WS02004413WS02003067        0.01      0.01      0.95      0.01         0.01
  WS02006109WS02006110        1.81      1.81      2.02      1.82         0.01
  WS02006110WS02006113        0.91      0.91      2.01      0.22         0.01
  WS02006111WS02006112        0.87      0.88      2.26      0.01         0.01
  WS02006112WS02006115        1.26      1.26      1.84      0.01         0.01
  WS02006113WS02006111        0.89      0.91      0.89      1.07         0.89
  WS02006115WS02006116        1.28      1.28      1.28      1.23         1.22
  WS02006116WS02004401        1.36      1.36      1.37      1.33         1.31
  WS02006228WS02006109        1.98      2.02      1.98      2.71         1.98
  WS02006229WS02006228        1.97      1.99      1.97      2.34         1.97
  WS02006230WS02006229        2.06      2.21      2.06      4.56         1.50
  WS02006231WS02006230        1.71      1.71      1.81      3.80         0.54
  WS02006232WS02006231        1.80      1.80      1.92      0.01         0.06
  WS02006234WS02006232        1.85      1.85      1.92      0.01         0.01
  WS02006235WS02006234        1.83      1.83      1.86      3.31         0.52
  WS02006238WS02006235        1.87      1.87      1.90      0.01         0.19
  WS02006239WS02006238        1.88      1.88      1.88      1.13         0.49
  WS02006240WS02006239        1.84      1.84      1.85      1.10         0.44
  WS02006242WS02006240        1.84      1.84      1.93      1.56         0.47
  WS02006243WS02006242        1.83      1.83      1.87      0.01         0.01
  WS02006245WS02006243        1.82      1.82      1.83      0.63         0.35
  WS02006247WS02006245        1.82      1.83      1.82      2.59         1.00
  WS02006248WS02006247        1.81      1.81      1.82      0.01         0.01
  WS02006249WS02006248        1.81      1.81      1.82      1.66         0.01
  WS02006251WS02006249        1.81      1.83      1.82      1.98         1.62
  WS02006252WS02006251        2.13      2.13      2.20      1.78         0.01
  WS02006253WS02006251        1.83      1.83      1.84      0.40         0.03
  WS02006256WS02006235        3.56      3.56      7.81      0.98         0.01
  WS02006280WS02006229        0.39      0.39      0.49      0.01         0.01
  WS02006284WS02006280        0.31      0.31      0.38      0.01         0.01
  WS02006287WS02006284        0.24      0.24      0.32      0.01         0.01
  YS02001580YS02001583        0.12      0.12      0.19      0.01         0.01
  YS02001583YS02001586        0.14      0.14      0.31      0.01         0.01
  YS02001586YS02001590        0.31      0.31      0.37      0.01         0.01
  YS02001590YS02001593        0.38      0.38      0.39      0.40         0.01
  YS02001593YS02001596        0.38      0.38      0.47      0.01         0.01
  YS02001596YS02001600        0.50      0.50      0.59      0.01         0.01
  YS02001600YS02001601        0.64      0.64      0.93      0.01         0.01
  YS02001601YS02001602        0.81      0.81      0.98      0.61         0.01
  YS02001602YS02001605        0.76      0.76      0.81      1.83         0.01
  YS02001605YS02001607        0.71      0.76      0.71      0.88         0.71
  YS02001607YS02001610        0.31      0.31      0.34      0.01         0.01
  YS02001610YS02001613        0.30      0.30      0.34      0.01         0.01
  YS02001613YS02001616        0.26      0.26      0.30      0.01         0.01
  YS02001616YS02001619        0.25      0.25      0.26      0.01         0.01
  YS02001619YS02001622        0.24      0.25      0.24      0.40         0.24
  YS02001622YS02001625        0.24      0.24      0.42      0.01         0.01
  YS02001625YS02001629        0.15      0.15      0.42      0.01         0.01
  YS02001629YS02163301        0.40      0.40      0.41      0.29         0.26
  YS02001633YS02163601        0.43      0.43      0.45      0.33         0.32
  YS02001641YS02001644        0.28      0.33      0.28      1.04         0.28
  YS02001644YS02001647        0.01      0.01      0.28      0.01         0.01
  YS02001649YS02001757        0.01      0.01      0.01      0.16         0.01
  YS02001757CaochengTiaoxuchi        0.01      0.01      0.01      0.17         0.01
  YS02001770YS02001767        0.01      0.01      0.01      0.27         0.01
  YS02001783YS02001784        0.20      0.23      0.20      0.35         0.20
  YS02001784YS02001785        0.05      0.20      0.05      0.54         0.05
  YS02001786YS02001788        0.01      0.05      0.01      0.43         0.01
  YS02001790YS02001791        0.01      0.01      0.01      0.19         0.01
  YS02001793JiankangQianchi        0.01      0.01      0.31      0.01         0.01
  YS02001882YS02001884        0.17      0.17      0.18      0.01         0.01
  YS02001884YS02001887        0.21      0.21      0.22      0.01         0.01
  YS02001887YS02001890        0.24      0.24      0.25      0.01         0.01
  YS02001890YS02001895        0.16      0.16      0.26      0.01         0.01
  YS02001895YS02001898        0.15      0.15      0.16      0.01         0.01
  YS02001898YS02001901        0.16      0.16      0.21      0.01         0.01
  YS02001901YS02001904        0.20      0.20      0.21      0.01         0.01
  YS02001904YS02001907        0.20      0.20      0.41      0.01         0.01
  YS02001907YS02006553        0.54      0.54      0.59      0.01         0.01
  YS02001910YS02001907        0.26      0.26      0.40      0.01         0.01
  YS02001915YS02001910        0.17      0.17      0.26      0.01         0.01
  YS02001918YS02001915        0.01      0.01      0.17      0.01         0.01
  YS02001920YS02001918        0.01      0.01      0.06      0.01         0.01
  YS02001923YS02001920        0.01      0.01      0.06      0.01         0.01
  YS02006553YS02006556        0.34      0.34      0.42      0.01         0.01
  YS02006556YS02006558        0.38      0.38      0.43      0.01         0.01
  YS02006558YS02006561        0.09      0.33      0.09      0.50         0.09
  YS02006561YS02001783        0.01      0.01      0.23      0.01         0.01
  YS02163301YS02001633        0.41      0.41      0.45      0.01         0.01
  YS02163601YS02164001        0.34      0.34      0.45      0.19         0.01
  YS02164001YS02001641        0.33      0.34      0.33      0.50         0.33
  YSB1154YSB6556              0.34      0.34      0.44      0.01         0.01
  YSB1171HS02004479           0.26      0.26      0.45      0.01         0.01
  YSB1174YSB1171              0.39      0.39      0.65      0.01         0.01
  YSB6556YSB1171              0.34      0.34      0.79      0.01         0.01
  
  
  ***************
  Pumping Summary
  ***************
  
  ---------------------------------------------------------------------------------------------------------
                                                  Min       Avg       Max     Total     Power    % Time Off
                        Percent   Number of      Flow      Flow      Flow    Volume     Usage    Pump Curve
  Pump                 Utilized   Start-Ups       LPS       LPS       LPS  10^6 ltr     Kw-hr    Low   High
  ---------------------------------------------------------------------------------------------------------
  CC-R1                   79.17           7      0.00    248.49    683.00     5.691     91.27    0.0  100.0
  CC-R2                    4.17           3      0.00    366.99    683.00     0.414      6.85    0.0  100.0
  CC-S1                   89.58           6      0.00     76.29    200.00     1.835     15.28    0.0   81.4
  CC-S2                   87.50           9      0.00     79.19    200.00     1.830     15.20    0.0   82.7
  JK-R1                   13.54           7      0.00    317.14   1000.00     1.197      3.77    0.0    0.0
  JK-R2                   21.88           6      0.00     69.19   1000.00     0.532      4.50    0.0    0.0
  JK-S                    77.08           5      0.00     60.73    300.00     1.420     30.02    0.0    0.0
  XR-1                    97.91           1      0.00     95.00     95.00     2.679      9.62    0.0    0.0
  XR-2                    93.95           1      0.00     95.00     95.00     2.570      8.78    0.0    0.0
  XR-3                     0.00           0      0.00      0.00      0.00     0.000      0.00    0.0    0.0
  XR-4                     0.00           0      0.00      0.00      0.00     0.000      0.00    0.0    0.0
  

  Analysis begun on:  Fri Jun 16 03:01:55 2023
  Analysis ended on:  Fri Jun 16 03:01:58 2023
  Total elapsed time: 00:00:03