
  OWA STORM WATER MANAGEMENT MODEL - VERSION v5.2.3 (OWA 2023-06-06)
  ------------------------------------------------------------

  WARNING 04: minimum elevation drop used for Conduit WS02004404WS02004405
  WARNING 03: negative offset ignored for Link YS02001904YS02001907
  
  ****************
  Analysis Options
  ****************
  Flow Units ............... LPS
  Process Models:
    Rainfall/Runoff ........ YES
    RDII ................... NO
    Snowmelt ............... NO
    Groundwater ............ NO
    Flow Routing ........... YES
    Ponding Allowed ........ NO
    Water Quality .......... NO
  Infiltration Method ...... HORTON
  Flow Routing Method ...... DYNWAVE
  Surcharge Method ......... EXTRAN
  Starting Date ............ 08/28/2015 08:00:00
  Ending Date .............. 08/28/2015 16:00:00
  Antecedent Dry Days ...... 8.0
  Report Time Step ......... 00:01:00
  Wet Time Step ............ 00:01:00
  Dry Time Step ............ 00:01:00
  Routing Time Step ........ 30.00 sec
  Variable Time Step ....... YES
  Maximum Trials ........... 8
  Number of Threads ........ 2
  Head Tolerance ........... 0.001500 m
  
  
  **************************        Volume         Depth
  Runoff Quantity Continuity     hectare-m            mm
  **************************     ---------       -------
  Total Precipitation ......         0.908        27.379
  Evaporation Loss .........         0.000         0.000
  Infiltration Loss ........         0.085         2.554
  Surface Runoff ...........         0.791        23.844
  Final Storage ............         0.033         0.989
  Continuity Error (%) .....        -0.029
  
  
  **************************        Volume        Volume
  Flow Routing Continuity        hectare-m      10^6 ltr
  **************************     ---------     ---------
  Dry Weather Inflow .......         0.025         0.251
  Wet Weather Inflow .......         0.790         7.899
  Groundwater Inflow .......         0.000         0.000
  RDII Inflow ..............         0.000         0.000
  External Inflow ..........         0.083         0.834
  External Outflow .........         0.950         9.504
  Flooding Loss ............         0.042         0.417
  Evaporation Loss .........         0.000         0.000
  Exfiltration Loss ........         0.000         0.000
  Initial Stored Volume ....         0.243         2.431
  Final Stored Volume ......         0.182         1.820
  Continuity Error (%) .....        -2.861
  
  
  *************************
  Highest Continuity Errors
  *************************
  Node YS02001884 (5.42%)
  Node YS02001583 (-5.06%)
  Node WS02006256 (-4.59%)
  Node YS02001774 (2.73%)
  Node WS02006111 (-1.17%)
  
  
  ***************************
  Time-Step Critical Elements
  ***************************
  Link WS02006252WS02006251 (29.11%)
  Link WS02006238WS02006235 (28.68%)
  Link WS02004404WS02004405 (17.02%)
  Link WS02003066WSF200 (7.12%)
  Link WS02006235WS02006234 (5.63%)
  
  
  ********************************
  Highest Flow Instability Indexes
  ********************************
  Link WS02006113WS02006111 (34)
  Link WS02006256WS02006235 (19)
  Link WS02006111WS02006112 (13)
  Link WS02006238WS02006235 (12)
  Link WS02006229WS02006228 (11)
  
  
  *********************************
  Most Frequent Nonconverging Nodes
  *********************************
  Node CC-1 (11.63%)
  Node CC-2 (11.63%)
  Node JK-1 (11.63%)
  Node JK-2 (11.63%)
  Node WSC (11.63%)
  
  
  *************************
  Routing Time Step Summary
  *************************
  Minimum Time Step           :     0.00 sec
  Average Time Step           :     2.73 sec
  Maximum Time Step           :    30.00 sec
  % of Time in Steady State   :     0.00
  Average Iterations per Step :     3.07
  % of Steps Not Converging   :    11.63
  Time Step Frequencies       :
     30.000 - 13.228 sec      :     0.01 %
     13.228 -  5.833 sec      :    13.98 %
      5.833 -  2.572 sec      :    32.76 %
      2.572 -  1.134 sec      :    19.07 %
      1.134 -  0.500 sec      :    34.18 %
  
  
  ***************************
  Subcatchment Runoff Summary
  ***************************
  
  ------------------------------------------------------------------------------------------------------------------------------
                            Total      Total      Total      Total     Imperv       Perv      Total       Total     Peak  Runoff
                           Precip      Runon       Evap      Infil     Runoff     Runoff     Runoff      Runoff   Runoff   Coeff
  Subcatchment                 mm         mm         mm         mm         mm         mm         mm    10^6 ltr      LPS
  ------------------------------------------------------------------------------------------------------------------------------
  sub60                     27.38       0.00       0.00       1.61      22.89       1.67      24.56        0.32   198.14   0.897
  sub61                     27.38       0.00       0.00       2.32      21.59       2.33      23.92        0.44   269.56   0.874
  sub62                     27.38       0.00       0.00       1.08      23.90       1.12      25.02        0.69   372.38   0.914
  sub63                     27.38       0.00       0.00       4.22      18.47       3.72      22.18        0.50   281.73   0.810
  sub64                     27.38       0.00       0.00       2.14      22.07       1.96      24.03        0.58   284.35   0.878
  sub65                     27.38       0.00       0.00       1.86      22.57       1.70      24.27        0.67   313.15   0.887
  sub66                     27.38       0.00       0.00       4.99      18.37       2.95      21.32        0.99   373.17   0.779
  sub67                     27.38       0.00       0.00       1.05      23.94       1.14      25.08        0.47   318.81   0.916
  sub68                     27.38       0.00       0.00       1.92      22.36       1.91      24.27        0.67   380.64   0.886
  sub69                     27.38       0.00       0.00       1.62      23.16       2.48      25.65        0.95   443.14   0.937
  sub70                     27.38       0.00       0.00       5.13      17.91       4.18      22.10        0.64   219.96   0.807
  sub71                     27.38       0.00       0.00       1.10      23.86       1.10      24.96        0.65   309.95   0.912
  sub72                     27.38       0.00       0.00       0.97      24.07       0.95      25.01        0.34   143.10   0.914
  
  
  ******************
  Node Depth Summary
  ******************
  
  ---------------------------------------------------------------------------------
                                 Average  Maximum  Maximum  Time of Max    Reported
                                   Depth    Depth      HGL   Occurrence   Max Depth
  Node                 Type       Meters   Meters   Meters  days hr:min      Meters
  ---------------------------------------------------------------------------------
  WS02003060           JUNCTION     0.20     0.38     5.31     0  02:04        0.38
  WS02003066           JUNCTION     0.17     0.29     5.85     0  02:03        0.29
  WS02003067           JUNCTION     0.46     0.69     6.01     0  02:03        0.69
  WS02003069           JUNCTION     0.22     0.42     5.00     0  02:04        0.42
  WS02003072           JUNCTION     0.28     0.49     4.86     0  02:05        0.49
  WS02003073           JUNCTION     0.16     0.29     4.36     0  02:06        0.29
  WS02004401           JUNCTION     0.54     0.84     6.84     0  02:00        0.84
  WS02004402           JUNCTION     0.58     0.87     6.83     0  02:00        0.87
  WS02004403           JUNCTION     0.60     0.89     6.82     0  02:01        0.89
  WS02004404           JUNCTION     0.68     0.96     6.81     0  02:01        0.96
  WS02004405           JUNCTION     0.68     0.95     6.80     0  02:01        0.95
  WS02004406           JUNCTION     0.69     0.95     6.78     0  02:01        0.95
  WS02004407           JUNCTION     0.15     0.29     6.61     0  02:01        0.29
  WS02004409           JUNCTION     0.33     0.65     6.42     0  02:12        0.65
  WS02004410           JUNCTION     0.36     0.66     6.38     0  02:12        0.66
  WS02004411           JUNCTION     0.38     0.67     6.35     0  02:12        0.67
  WS02004412           JUNCTION     0.41     0.68     6.32     0  02:03        0.68
  WS02004413           JUNCTION     0.58     0.84     6.31     0  02:03        0.84
  WS02006109           JUNCTION     0.59     1.16     7.78     0  03:06        0.97
  WS02006110           JUNCTION     0.60     1.12     7.70     0  02:06        0.93
  WS02006111           JUNCTION     0.15     0.90     7.60     0  00:00        0.40
  WS02006112           JUNCTION     0.69     2.68     8.56     0  00:00        1.14
  WS02006113           JUNCTION     0.23     1.40     8.29     0  00:00        0.46
  WS02006115           JUNCTION     0.42     1.65     7.79     0  00:00        0.86
  WS02006116           JUNCTION     0.51     1.06     7.10     0  00:00        0.82
  WS02006228           JUNCTION     0.57     1.15     7.81     0  02:06        1.02
  WS02006229           JUNCTION     0.54     1.19     7.88     0  02:06        1.06
  WS02006230           JUNCTION     0.53     1.37     8.12     0  02:06        1.17
  WS02006231           JUNCTION     0.35     1.34     8.46     0  01:50        1.12
  WS02006232           JUNCTION     0.47     1.73     8.77     0  03:05        1.38
  WS02006234           JUNCTION     0.39     1.73     8.89     0  02:50        1.41
  WS02006235           JUNCTION     0.42     1.84     9.01     0  02:50        1.37
  WS02006238           JUNCTION     0.45     1.89     9.04     0  02:50        1.37
  WS02006239           JUNCTION     0.40     1.79     9.00     0  02:50        1.33
  WS02006240           JUNCTION     0.37     1.94     9.23     0  03:05        1.30
  WS02006242           JUNCTION     0.43     1.55     8.82     0  01:53        1.36
  WS02006243           JUNCTION     0.34     1.48     8.90     0  01:53        1.25
  WS02006245           JUNCTION     0.35     1.51     9.00     0  01:53        1.20
  WS02006247           JUNCTION     0.37     1.47     8.97     0  01:53        1.18
  WS02006248           JUNCTION     0.33     1.10     8.69     0  01:53        1.10
  WS02006249           JUNCTION     0.36     1.09     8.69     0  01:49        1.09
  WS02006251           JUNCTION     0.35     2.19     9.86     0  01:53        1.16
  WS02006252           JUNCTION     0.26     1.50     9.74     0  01:46        0.70
  WS02006256           JUNCTION     0.95     2.35     9.28     0  00:05        2.35
  WSF200               JUNCTION     0.14     0.28     5.52     0  02:13        0.28
  YS02001580           JUNCTION     0.05     1.05     9.59     0  01:42        0.69
  YS02001583           JUNCTION     0.09     1.14     9.64     0  01:42        0.72
  YS02001586           JUNCTION     0.15     1.13     9.30     0  01:42        1.01
  YS02001590           JUNCTION     0.25     1.40     9.26     0  01:39        1.25
  YS02001593           JUNCTION     0.19     1.31     9.18     0  01:42        1.19
  YS02001596           JUNCTION     0.26     1.68     9.10     0  01:42        1.58
  YS02001600           JUNCTION     0.32     1.87     9.00     0  01:42        1.82
  YS02001601           JUNCTION     0.52     2.06     8.90     0  01:42        2.06
  YS02001602           JUNCTION     0.43     1.87     8.77     0  01:42        1.87
  YS02001605           JUNCTION     0.39     1.78     8.68     0  01:42        1.68
  YS02001607           JUNCTION     0.36     1.68     8.53     0  01:42        1.40
  YS02001610           JUNCTION     0.40     1.68     8.48     0  01:42        1.44
  YS02001613           JUNCTION     0.36     1.70     8.54     0  01:42        1.39
  YS02001616           JUNCTION     0.30     1.61     8.52     0  01:42        1.32
  YS02001619           JUNCTION     0.27     1.61     8.54     0  01:42        1.30
  YS02001622           JUNCTION     0.26     1.54     8.45     0  01:42        1.28
  YS02001625           JUNCTION     0.51     1.73     8.34     0  01:42        1.51
  YS02001629           JUNCTION     0.38     1.85     8.40     0  01:42        1.50
  YS02001633           JUNCTION     0.45     1.74     8.19     0  01:42        1.46
  YS02001641           JUNCTION     0.43     1.38     7.82     0  01:42        1.19
  YS02001644           JUNCTION     0.42     1.32     7.75     0  01:42        1.10
  YS02001647           JUNCTION     0.20     0.75     7.36     0  01:43        0.73
  YS02001649           JUNCTION     0.23     0.85     7.24     0  01:44        0.83
  YS02001652           JUNCTION     0.12     0.65     7.24     0  01:44        0.62
  YS02001655           JUNCTION     0.07     0.39     7.24     0  01:44        0.36
  YS02001658           JUNCTION     0.06     0.23     7.38     0  01:40        0.23
  YS02001661           JUNCTION     0.11     0.29     7.70     0  01:40        0.29
  YS02001664           JUNCTION     0.05     0.20     8.13     0  01:40        0.20
  YS02001745           JUNCTION     0.04     0.19     7.70     0  01:40        0.19
  YS02001748           JUNCTION     0.05     0.21     7.29     0  01:40        0.21
  YS02001751           JUNCTION     0.05     0.21     7.09     0  01:41        0.21
  YS02001754           JUNCTION     0.08     0.50     7.11     0  01:45        0.49
  YS02001757           JUNCTION     0.23     0.83     7.09     0  01:47        0.83
  YS02001759           JUNCTION     0.17     0.74     7.10     0  01:46        0.73
  YS02001762           JUNCTION     0.16     0.71     7.11     0  01:46        0.70
  YS02001765           JUNCTION     0.14     0.68     7.13     0  01:46        0.66
  YS02001767           JUNCTION     0.15     0.64     7.13     0  01:46        0.64
  YS02001770           JUNCTION     0.16     0.66     7.16     0  01:47        0.66
  YS02001774           JUNCTION     0.22     0.74     7.17     0  01:47        0.73
  YS02001779           JUNCTION     0.06     0.48     7.17     0  01:45        0.47
  YS02001783           JUNCTION     0.21     0.87     7.01     0  01:46        0.86
  YS02001784           JUNCTION     0.23     0.82     6.89     0  01:46        0.82
  YS02001786           JUNCTION     0.20     0.66     6.69     0  01:46        0.66
  YS02001788           JUNCTION     0.15     0.52     6.50     0  01:48        0.52
  YS02001790           JUNCTION     0.18     0.62     6.26     0  01:48        0.61
  YS02001791           JUNCTION     0.11     0.37     5.84     0  01:48        0.37
  YS02001793           JUNCTION     0.06     0.18     5.02     0  01:46        0.18
  YS02001882           JUNCTION     0.25     0.94     7.66     0  01:47        0.94
  YS02001884           JUNCTION     0.33     1.04     7.65     0  01:46        1.04
  YS02001887           JUNCTION     0.41     1.12     7.65     0  01:46        1.11
  YS02001890           JUNCTION     0.44     1.15     7.65     0  01:46        1.14
  YS02001895           JUNCTION     0.22     0.90     7.65     0  01:46        0.90
  YS02001898           JUNCTION     0.23     0.91     7.65     0  01:47        0.91
  YS02001901           JUNCTION     0.34     1.04     7.65     0  01:45        1.03
  YS02001904           JUNCTION     0.32     1.02     7.65     0  01:47        1.01
  YS02001907           JUNCTION     0.63     1.36     7.64     0  01:47        1.35
  YS02001910           JUNCTION     0.43     1.15     7.66     0  01:46        1.15
  YS02001915           JUNCTION     0.25     0.96     7.67     0  01:46        0.95
  YS02001918           JUNCTION     0.11     0.61     7.67     0  01:46        0.60
  YS02001920           JUNCTION     0.19     0.67     7.68     0  01:47        0.67
  YS02001923           JUNCTION     0.07     0.42     7.68     0  01:46        0.42
  YS02001926           JUNCTION     0.12     0.31     7.76     0  01:44        0.31
  YS02001929           JUNCTION     0.05     0.18     7.87     0  01:44        0.18
  YS02006553           JUNCTION     0.63     1.35     7.63     0  01:46        1.34
  YS02006556           JUNCTION     0.60     1.30     7.61     0  01:46        1.30
  YS02006558           JUNCTION     0.64     1.33     7.60     0  01:46        1.33
  YS02006561           JUNCTION     0.12     0.46     7.12     0  01:46        0.45
  YS02163301           JUNCTION     0.40     1.82     8.34     0  01:42        1.46
  YS02163601           JUNCTION     0.49     1.61     8.00     0  01:42        1.37
  YS02164001           JUNCTION     0.42     1.43     7.89     0  01:42        1.23
  CC-1                 OUTFALL      0.00     0.00     0.00     0  00:00        0.00
  CC-2                 OUTFALL      0.00     0.00     0.00     0  00:00        0.00
  JK-1                 OUTFALL      0.00     0.00     0.00     0  00:00        0.00
  JK-2                 OUTFALL      0.00     0.00     0.00     0  00:00        0.00
  WSC                  OUTFALL      0.15     0.29     0.96     0  02:06        0.29
  CC-storage           STORAGE      0.67     1.20     6.70     0  02:10        1.20
  JK-storage           STORAGE      1.38     4.20     5.00     0  02:06        4.17
  
  
  *******************
  Node Inflow Summary
  *******************
  
  -------------------------------------------------------------------------------------------------
                                  Maximum  Maximum                  Lateral       Total        Flow
                                  Lateral    Total  Time of Max      Inflow      Inflow     Balance
                                   Inflow   Inflow   Occurrence      Volume      Volume       Error
  Node                 Type           LPS      LPS  days hr:min    10^6 ltr    10^6 ltr     Percent
  -------------------------------------------------------------------------------------------------
  WS02003060           JUNCTION     16.53   530.20     0  02:03       0.476        3.79       0.064
  WS02003066           JUNCTION      0.00   512.91     0  02:03           0        3.31       0.045
  WS02003067           JUNCTION      0.00   512.50     0  02:03           0        3.32       0.128
  WS02003069           JUNCTION      0.32   530.84     0  02:04     0.00922        3.79       0.107
  WS02003072           JUNCTION      0.00   529.44     0  02:04           0        3.79       0.192
  WS02003073           JUNCTION      1.82   530.00     0  02:05      0.0524        3.84       0.153
  WS02004401           JUNCTION      0.00  1677.78     0  00:00           0        3.43       0.336
  WS02004402           JUNCTION      0.00  1171.33     0  00:01           0        3.41       0.330
  WS02004403           JUNCTION      0.00   884.75     0  00:01           0         3.4       0.321
  WS02004404           JUNCTION      0.16   832.59     0  00:01     0.00467         3.4       0.276
  WS02004405           JUNCTION      0.04   776.49     0  00:01      0.0011        3.39       0.363
  WS02004406           JUNCTION      0.00   711.76     0  00:02           0        3.37       0.647
  WS02004407           JUNCTION      0.00   529.88     0  02:01           0        3.35       0.032
  WS02004409           JUNCTION      0.00   529.17     0  02:01           0        3.35       0.081
  WS02004410           JUNCTION      0.00   524.13     0  02:02           0        3.35       0.138
  WS02004411           JUNCTION      0.00   520.00     0  02:02           0        3.34       0.177
  WS02004412           JUNCTION      0.00   516.94     0  02:02           0        3.34       0.229
  WS02004413           JUNCTION      0.00   514.19     0  02:03           0        3.33       0.413
  WS02006109           JUNCTION      1.23  1308.01     0  00:00      0.0354        3.36       0.170
  WS02006110           JUNCTION      0.00   566.39     0  02:06           0        3.33      -1.084
  WS02006111           JUNCTION      0.00  1176.04     0  00:00           0        3.36      -1.152
  WS02006112           JUNCTION      0.00  2307.30     0  00:00           0         3.4      -0.008
  WS02006113           JUNCTION      0.00   574.14     0  02:06           0        3.32      -1.473
  WS02006115           JUNCTION      0.00   899.27     0  00:00           0        3.37      -0.953
  WS02006116           JUNCTION      0.00  1098.16     0  00:01           0         3.4      -0.682
  WS02006228           JUNCTION      0.00   559.75     0  02:06           0         3.3       0.075
  WS02006229           JUNCTION      0.00   559.02     0  02:06           0        3.29       0.295
  WS02006230           JUNCTION     10.28   581.60     0  02:35       0.296        3.27       0.027
  WS02006231           JUNCTION      0.00   572.03     0  02:05           0        2.96      -0.066
  WS02006232           JUNCTION      0.00   571.46     0  02:05           0        2.97       0.309
  WS02006234           JUNCTION      0.00   567.74     0  02:05           0        2.95      -0.567
  WS02006235           JUNCTION      0.00   560.95     0  02:05           0         3.1       0.578
  WS02006238           JUNCTION      0.00   424.65     0  02:00           0        2.46      -0.342
  WS02006239           JUNCTION      0.00   423.46     0  02:00           0        2.36      -0.242
  WS02006240           JUNCTION      0.00   419.65     0  02:46           0         2.3      -0.035
  WS02006242           JUNCTION      0.00   420.15     0  02:41           0        2.28      -0.168
  WS02006243           JUNCTION      0.00   419.91     0  02:41           0        2.26      -0.514
  WS02006245           JUNCTION      0.00   420.27     0  02:00           0        2.28       0.783
  WS02006247           JUNCTION      0.00   420.74     0  02:00           0        2.28       0.023
  WS02006248           JUNCTION      0.00   421.50     0  02:00           0        2.28      -0.045
  WS02006249           JUNCTION      0.00   829.53     0  00:05           0        2.38       0.805
  WS02006251           JUNCTION      0.08   460.09     0  00:05     0.00222        2.36      -0.594
  WS02006252           JUNCTION      0.00   400.00     0  00:05           0        2.34      -0.736
  WS02006256           JUNCTION      0.00   300.00     0  00:05           0       0.902      -4.386
  WSF200               JUNCTION      0.00   513.13     0  02:03           0        3.31       0.015
  YS02001580           JUNCTION      0.00    85.72     0  01:42           0     0.00429       1.903
  YS02001583           JUNCTION      0.00   115.63     0  01:41           0      0.0154      -4.815
  YS02001586           JUNCTION    219.96   232.40     0  01:43       0.638        0.65       0.189
  YS02001590           JUNCTION      0.00   232.45     0  01:43           0       0.637      -0.022
  YS02001593           JUNCTION      0.00   232.40     0  01:43           0       0.637       0.005
  YS02001596           JUNCTION      0.00   232.49     0  01:43           0       0.637      -0.019
  YS02001600           JUNCTION      0.00   232.58     0  01:43           0       0.637       0.001
  YS02001601           JUNCTION    443.14   671.35     0  01:43       0.948        1.59       0.039
  YS02001602           JUNCTION      0.00   555.16     0  01:42           0        1.52       0.029
  YS02001605           JUNCTION      0.00   555.28     0  01:41           0        1.52       0.023
  YS02001607           JUNCTION      0.00   555.57     0  01:41           0        1.52       0.116
  YS02001610           JUNCTION      0.00   550.88     0  01:42           0        1.52       0.141
  YS02001613           JUNCTION      0.00   558.36     0  01:42           0        1.52       0.106
  YS02001616           JUNCTION      0.00   575.20     0  01:42           0        1.52       0.021
  YS02001619           JUNCTION    373.17   926.98     0  01:42       0.993        2.51      -0.010
  YS02001622           JUNCTION      0.00   899.68     0  01:42           0        2.51      -0.007
  YS02001625           JUNCTION      0.00   910.13     0  01:42           0        2.51       0.375
  YS02001629           JUNCTION      0.00   909.97     0  01:42           0         2.5       0.017
  YS02001633           JUNCTION    313.35  1187.03     0  01:43       0.673        3.18       0.104
  YS02001641           JUNCTION      0.00  1185.13     0  01:43           0        3.18       0.084
  YS02001644           JUNCTION    284.39  1467.20     0  01:43       0.578        3.75       0.086
  YS02001647           JUNCTION      0.00  1472.23     0  01:43           0        3.74       0.010
  YS02001649           JUNCTION      0.00  1765.69     0  01:44           0        4.24       0.013
  YS02001652           JUNCTION      0.00   305.96     0  01:44           0       0.505      -0.402
  YS02001655           JUNCTION      0.15   281.90     0  01:40     0.00443       0.507       0.337
  YS02001658           JUNCTION      0.00   281.82     0  01:40           0       0.502      -0.006
  YS02001661           JUNCTION      0.00   281.58     0  01:40           0       0.503       0.076
  YS02001664           JUNCTION    281.73   281.73     0  01:40       0.503       0.503      -0.016
  YS02001745           JUNCTION    198.15   198.15     0  01:40       0.322       0.322      -0.007
  YS02001748           JUNCTION      0.04   198.09     0  01:40      0.0013       0.324       0.004
  YS02001751           JUNCTION      0.01   198.03     0  01:40    0.000317       0.324       0.340
  YS02001754           JUNCTION      0.26   201.15     0  01:41     0.00749        0.33      -0.427
  YS02001757           JUNCTION      0.00  2397.30     0  01:44           0        5.72       0.076
  YS02001759           JUNCTION    269.60   563.77     0  01:46       0.439        1.14      -0.012
  YS02001762           JUNCTION      0.00   347.87     0  01:48           0       0.703       0.029
  YS02001765           JUNCTION      0.00   342.61     0  01:47           0       0.703       0.027
  YS02001767           JUNCTION      0.54   358.25     0  01:47      0.0154       0.703       0.037
  YS02001770           JUNCTION    372.53   372.53     0  01:41       0.689        0.72      -0.004
  YS02001774           JUNCTION      0.00    58.66     0  01:45           0      0.0439       2.806
  YS02001779           JUNCTION      0.01    38.94     0  01:45    0.000144      0.0121       0.188
  YS02001783           JUNCTION      0.00   928.69     0  01:46           0        2.18       0.016
  YS02001784           JUNCTION      1.06   929.77     0  01:46      0.0305        2.21       0.027
  YS02001786           JUNCTION      0.06   929.53     0  01:46     0.00162        2.21       0.030
  YS02001788           JUNCTION      0.07   930.77     0  01:46     0.00204        2.21       0.017
  YS02001790           JUNCTION      0.15   932.03     0  01:46     0.00446        2.22       0.032
  YS02001791           JUNCTION      0.00   995.60     0  01:47           0        2.22       0.000
  YS02001793           JUNCTION      0.00   941.94     0  01:48           0        2.22       0.012
  YS02001882           JUNCTION      0.00    28.17     0  01:40           0      0.0121       5.777
  YS02001884           JUNCTION      0.00    79.64     0  01:39           0      0.0467       5.726
  YS02001887           JUNCTION    319.26   319.26     0  01:39       0.478       0.511       0.904
  YS02001890           JUNCTION      0.00   286.60     0  01:41           0       0.471       1.107
  YS02001895           JUNCTION      0.00   266.49     0  01:41           0       0.466       0.374
  YS02001898           JUNCTION      0.00   236.39     0  01:45           0       0.464       0.069
  YS02001901           JUNCTION      0.00   225.41     0  01:45           0       0.468       0.735
  YS02001904           JUNCTION      0.00   221.90     0  01:45           0       0.482       0.611
  YS02001907           JUNCTION      0.00   646.22     0  01:49           0        1.56       1.134
  YS02001910           JUNCTION      0.00   444.64     0  01:48           0        1.08       0.659
  YS02001915           JUNCTION    309.97   443.79     0  01:49       0.652        1.08       0.153
  YS02001918           JUNCTION      0.00   172.09     0  01:47           0       0.428       0.081
  YS02001920           JUNCTION      2.87   160.15     0  01:45      0.0827       0.429       0.261
  YS02001923           JUNCTION      0.04   142.98     0  01:44     0.00109       0.346      -0.002
  YS02001926           JUNCTION      0.05   143.10     0  01:44      0.0015       0.345       0.088
  YS02001929           JUNCTION    143.10   143.10     0  01:44       0.344       0.344      -0.010
  YS02006553           JUNCTION      0.00   646.56     0  01:49           0        1.55       0.755
  YS02006556           JUNCTION      0.00   646.70     0  01:49           0        1.57       0.517
  YS02006558           JUNCTION    381.52   928.17     0  01:46       0.692        2.22       0.152
  YS02006561           JUNCTION      0.00   928.20     0  01:46           0        2.18       0.003
  YS02163301           JUNCTION      0.00   874.73     0  01:43           0        2.51       0.057
  YS02163601           JUNCTION      0.11  1186.82     0  01:43     0.00317        3.17       0.150
  YS02164001           JUNCTION      0.00  1186.62     0  01:43           0        3.17       0.069
  CC-1                 OUTFALL       0.00   683.00     0  01:10           0        1.79       0.000
  CC-2                 OUTFALL       0.00   683.00     0  00:05           0        2.44       0.000
  JK-1                 OUTFALL       0.00  1000.00     0  00:05           0        0.79       0.000
  JK-2                 OUTFALL       0.00  1000.00     0  01:40           0       0.654       0.000
  WSC                  OUTFALL       0.00   527.89     0  02:06           0        3.83       0.000
  CC-storage           STORAGE       0.00  2336.32     0  01:47           0        7.95      -0.295
  JK-storage           STORAGE       0.00   940.84     0  01:46           0        2.37      -0.700
  
  
  **********************
  Node Surcharge Summary
  **********************
  
  Surcharging occurs when water rises above the top of the highest conduit.
  ---------------------------------------------------------------------
                                               Max. Height   Min. Depth
                                   Hours       Above Crown    Below Rim
  Node                 Type      Surcharged         Meters       Meters
  ---------------------------------------------------------------------
  WS02006109           JUNCTION        1.10          0.341        1.479
  WS02006110           JUNCTION        0.22          0.207        1.643
  WS02006111           JUNCTION        0.01          0.087        1.783
  WS02006112           JUNCTION        0.20          1.680        0.000
  WS02006113           JUNCTION        0.01          0.600        1.330
  WS02006115           JUNCTION        0.01          0.642        1.608
  WS02006116           JUNCTION        0.01          0.000        2.290
  WS02006228           JUNCTION        1.09          0.324        1.876
  WS02006229           JUNCTION        1.10          0.391        2.059
  WS02006230           JUNCTION        0.23          0.291        1.279
  WS02006231           JUNCTION        0.33          0.632        0.898
  WS02006232           JUNCTION        1.14          1.034        0.446
  WS02006234           JUNCTION        0.68          1.011        0.229
  WS02006235           JUNCTION        1.07          1.135        0.155
  WS02006238           JUNCTION        1.10          1.174        0.256
  WS02006239           JUNCTION        1.08          1.049        0.241
  WS02006240           JUNCTION        1.09          1.229        0.161
  WS02006242           JUNCTION        1.14          0.820        0.000
  WS02006243           JUNCTION        1.03          0.770        0.000
  WS02006245           JUNCTION        0.99          0.801        0.049
  WS02006247           JUNCTION        0.99          0.760        0.000
  WS02006248           JUNCTION        0.97          0.380        0.000
  WS02006249           JUNCTION        0.97          0.390        0.000
  WS02006251           JUNCTION        0.34          1.161        0.019
  WS02006252           JUNCTION        1.38          1.100        0.000
  WS02006256           JUNCTION        6.66          2.050        0.000
  YS02001580           JUNCTION        0.01          0.450        0.000
  YS02001583           JUNCTION        0.01          0.500        0.000
  YS02001586           JUNCTION        0.24          0.510        0.000
  YS02001590           JUNCTION        0.32          0.750        0.000
  YS02001593           JUNCTION        0.32          0.695        0.145
  YS02001596           JUNCTION        0.42          0.948        0.122
  YS02001600           JUNCTION        0.53          1.190        0.000
  YS02001601           JUNCTION        0.83          1.440        0.000
  YS02001602           JUNCTION        0.72          1.270        0.000
  YS02001605           JUNCTION        0.68          1.180        0.000
  YS02001607           JUNCTION        0.24          0.680        0.000
  YS02001610           JUNCTION        0.27          0.680        0.000
  YS02001613           JUNCTION        0.23          0.700        0.000
  YS02001616           JUNCTION        0.19          0.610        0.000
  YS02001619           JUNCTION        0.17          0.610        0.000
  YS02001622           JUNCTION        0.16          0.542        0.078
  YS02001625           JUNCTION        0.36          0.731        0.049
  YS02001629           JUNCTION        0.01          0.470        0.000
  YS02001633           JUNCTION        0.37          0.720        0.340
  YS02001641           JUNCTION        0.27          0.382        0.718
  YS02001644           JUNCTION        0.20          0.321        0.599
  YS02001783           JUNCTION        0.13          0.067        1.533
  YS02001784           JUNCTION        0.09          0.021        1.469
  YS02001887           JUNCTION        0.11          0.067        0.883
  YS02001890           JUNCTION        0.14          0.096        0.664
  YS02001901           JUNCTION        0.08          0.037        0.833
  YS02001904           JUNCTION        0.05          0.015        0.835
  YS02001907           JUNCTION        0.35          0.346        0.604
  YS02001910           JUNCTION        0.18          0.154        0.946
  YS02006553           JUNCTION        0.36          0.347        0.843
  YS02006556           JUNCTION        0.27          0.260        1.090
  YS02006558           JUNCTION        0.26          0.233        1.167
  YS02163301           JUNCTION        0.35          0.822        0.208
  YS02163601           JUNCTION        0.39          0.605        0.475
  YS02164001           JUNCTION        0.29          0.428        0.672
  
  
  *********************
  Node Flooding Summary
  *********************
  
  Flooding refers to all water that overflows a node, whether it ponds or not.
  --------------------------------------------------------------------------
                                                             Total   Maximum
                                 Maximum   Time of Max       Flood    Ponded
                        Hours       Rate    Occurrence      Volume     Depth
  Node                 Flooded       LPS   days hr:min    10^6 ltr    Meters
  --------------------------------------------------------------------------
  WS02006112              0.01   1547.89      0  00:00       0.047     0.000
  WS02006242              0.01     49.21      0  03:05       0.000     0.000
  WS02006243              0.01     47.24      0  03:05       0.000     0.000
  WS02006247              0.01     67.61      0  01:53       0.000     0.000
  WS02006248              0.01     62.54      0  01:53       0.000     0.000
  WS02006249              0.32    126.12      0  01:53       0.075     0.000
  WS02006252              0.01     40.48      0  01:53       0.000     0.000
  WS02006256              0.83    285.60      0  04:45       0.256     0.000
  YS02001580              0.01     49.92      0  01:42       0.000     0.000
  YS02001583              0.01     94.07      0  01:42       0.000     0.000
  YS02001586              0.01     35.46      0  01:42       0.000     0.000
  YS02001590              0.01     44.23      0  01:39       0.000     0.000
  YS02001600              0.01      0.70      0  01:42       0.000     0.000
  YS02001601              0.17    209.61      0  01:43       0.061     0.000
  YS02001602              0.01     15.22      0  01:43       0.000     0.000
  YS02001605              0.01      2.13      0  01:42       0.000     0.000
  YS02001607              0.01     31.09      0  01:42       0.000     0.000
  YS02001610              0.01     38.33      0  01:42       0.000     0.000
  YS02001613              0.01     17.24      0  01:42       0.000     0.000
  YS02001616              0.01     47.23      0  01:42       0.000     0.000
  YS02001619              0.01     33.53      0  01:42       0.000     0.000
  YS02001629              0.01    117.68      0  01:42       0.000     0.000
  
  
  **********************
  Storage Volume Summary
  **********************
  
  ------------------------------------------------------------------------------------------------
                         Average    Avg   Evap  Exfil     Maximum    Max    Time of Max    Maximum
                          Volume   Pcnt   Pcnt   Pcnt      Volume   Pcnt     Occurrence    Outflow
  Storage Unit           1000 m³   Full   Loss   Loss     1000 m³   Full    days hr:min        LPS
  ------------------------------------------------------------------------------------------------
  CC-storage               1.859   29.0    0.0    0.0       3.346   52.2       0  02:10    1766.00
  JK-storage               0.069   23.8    0.0    0.0       0.211   72.5       0  02:06    2300.00
  
  
  ***********************
  Outfall Loading Summary
  ***********************
  
  -----------------------------------------------------------
                         Flow       Avg       Max       Total
                         Freq      Flow      Flow      Volume
  Outfall Node           Pcnt       LPS       LPS    10^6 ltr
  -----------------------------------------------------------
  CC-1                  19.18    683.00    683.00       1.788
  CC-2                  24.71    683.00    683.00       2.443
  JK-1                   5.15   1000.00   1000.00       0.790
  JK-2                   4.40   1000.00   1000.00       0.654
  WSC                   99.99    191.64    527.89       3.829
  -----------------------------------------------------------
  System                30.69   3557.64   3835.98       9.504
  
  
  ********************
  Link Flow Summary
  ********************
  
  -----------------------------------------------------------------------------
                                 Maximum  Time of Max   Maximum    Max/    Max/
                                  |Flow|   Occurrence   |Veloc|    Full    Full
  Link                 Type          LPS  days hr:min     m/sec    Flow   Depth
  -----------------------------------------------------------------------------
  1                    CONDUIT    527.89     0  02:06      2.79    0.18    0.29
  WS02003060WS02003069 CONDUIT    530.52     0  02:04      1.63    0.21    0.33
  WS02003066WSF200     CONDUIT    513.13     0  02:03      2.82    0.09    0.22
  WS02003067WS02003066 CONDUIT    512.91     0  02:03      1.18    0.16    0.41
  WS02003069WS02003072 CONDUIT    529.44     0  02:04      1.35    0.25    0.38
  WS02003072WS02003073 CONDUIT    528.18     0  02:05      1.41    1.14    0.37
  WS02004401WS02004402 CONDUIT   1171.33     0  00:01      2.51    1.41    0.86
  WS02004402WS02004403 CONDUIT    884.75     0  00:01      2.16    1.27    0.88
  WS02004403WS02004404 CONDUIT    832.43     0  00:01      1.96    0.60    0.92
  WS02004404WS02004405 CONDUIT    776.45     0  00:01      2.26    7.61    0.95
  WS02004405WS02004406 CONDUIT    711.76     0  00:02      2.15    1.40    0.95
  WS02004406WS02004407 CONDUIT    529.88     0  02:01      1.03    0.24    0.62
  WS02004407WS02004409 CONDUIT    529.17     0  02:01      1.95    0.19    0.47
  WS02004409WS02004410 CONDUIT    524.13     0  02:02      1.31    0.68    0.66
  WS02004410WS02004411 CONDUIT    520.00     0  02:02      1.19    0.71    0.67
  WS02004411WS02004412 CONDUIT    516.94     0  02:02      1.08    0.73    0.68
  WS02004412WS02004413 CONDUIT    514.19     0  02:03      1.10    0.34    0.76
  WS02004413WS02003067 CONDUIT    512.50     0  02:03      1.08    0.22    0.58
  WS02006109WS02006110 CONDUIT   1306.78     0  00:00      3.14    2.51    1.00
  WS02006110WS02006113 CONDUIT    574.14     0  02:06      1.38    0.52    1.00
  WS02006111WS02006112 CONDUIT   2307.30     0  00:00      9.18    1.10    0.91
  WS02006112WS02006115 CONDUIT    899.27     0  00:00      1.16    0.53    1.00
  WS02006113WS02006111 CONDUIT   1176.04     0  00:00      2.47    1.41    1.00
  WS02006115WS02006116 CONDUIT   1098.16     0  00:01      1.72    1.41    1.00
  WS02006116WS02004401 CONDUIT   1677.78     0  00:00      2.92    2.31    0.83
  WS02006228WS02006109 CONDUIT    562.95     0  02:06      1.40    2.46    1.00
  WS02006229WS02006228 CONDUIT    559.75     0  02:06      1.24    1.85    1.00
  WS02006230WS02006229 CONDUIT    559.02     0  02:06      1.45   12.44    1.00
  WS02006231WS02006230 CONDUIT    571.33     0  02:35      1.55    8.67    1.00
  WS02006232WS02006231 CONDUIT    572.03     0  02:05      1.49    1.20    1.00
  WS02006234WS02006232 CONDUIT    571.46     0  02:05      1.48    1.16    1.00
  WS02006235WS02006234 CONDUIT    567.74     0  02:05      1.48    5.99    1.00
  WS02006238WS02006235 CONDUIT    426.23     0  02:00      1.46    0.95    1.00
  WS02006239WS02006238 CONDUIT    424.65     0  02:00      1.11    1.36    1.00
  WS02006240WS02006239 CONDUIT    423.46     0  02:00      1.34    1.33    1.00
  WS02006242WS02006240 CONDUIT    419.65     0  02:46      1.12    1.67    1.00
  WS02006243WS02006242 CONDUIT    420.15     0  02:41      1.39    0.90    1.00
  WS02006245WS02006243 CONDUIT    419.91     0  02:41      1.47    1.24    1.00
  WS02006247WS02006245 CONDUIT    420.27     0  02:00      1.45    3.33    1.00
  WS02006248WS02006247 CONDUIT    420.74     0  02:00      1.50    0.92    1.00
  WS02006249WS02006248 CONDUIT    421.50     0  02:00      1.48    2.31    1.00
  WS02006251WS02006249 CONDUIT    829.53     0  00:05      2.91    2.39    1.00
  WS02006252WS02006251 CONDUIT    460.01     0  00:05     22.03    1.69    1.00
  WS02006256WS02006235 CONDUIT    288.85     0  00:05      4.23    3.06    1.00
  WSF200WS02003060     CONDUIT    513.67     0  02:03      2.04    0.11    0.27
  YS02001580YS02001583 CONDUIT     85.72     0  01:42      0.62    0.33    1.00
  YS02001583YS02001586 CONDUIT    107.87     0  01:41      0.50    0.16    1.00
  YS02001586YS02001590 CONDUIT    232.45     0  01:43      1.30    0.41    1.00
  YS02001590YS02001593 CONDUIT    232.40     0  01:43      1.02    1.46    1.00
  YS02001593YS02001596 CONDUIT    232.49     0  01:43      1.68    0.37    1.00
  YS02001596YS02001600 CONDUIT    232.58     0  01:43      1.16    0.45    1.00
  YS02001600YS02001601 CONDUIT    232.63     0  01:43      0.82    0.40    1.00
  YS02001601YS02001602 CONDUIT    555.16     0  01:42      1.96    2.01    1.00
  YS02001602YS02001605 CONDUIT    555.28     0  01:41      1.96   11.75    1.00
  YS02001605YS02001607 CONDUIT    555.57     0  01:41      1.96    3.05    1.00
  YS02001607YS02001610 CONDUIT    550.88     0  01:42      0.76    0.52    1.00
  YS02001610YS02001613 CONDUIT    558.36     0  01:42      0.73    0.64    1.00
  YS02001613YS02001616 CONDUIT    575.20     0  01:42      0.74    0.49    1.00
  YS02001616YS02001619 CONDUIT    562.33     0  01:42      0.76    0.98    1.00
  YS02001619YS02001622 CONDUIT    899.68     0  01:42      1.47    1.33    1.00
  YS02001622YS02001625 CONDUIT    910.13     0  01:42      1.16    0.49    1.00
  YS02001625YS02001629 CONDUIT    909.97     0  01:42      1.17    0.43    1.00
  YS02001629YS02163301 CONDUIT    874.73     0  01:43      1.11    1.08    1.00
  YS02001633YS02163601 CONDUIT   1186.71     0  01:43      1.51    1.25    1.00
  YS02001641YS02001644 CONDUIT   1185.27     0  01:43      1.51    3.83    1.00
  YS02001644YS02001647 CONDUIT   1472.23     0  01:43      2.04    0.86    0.87
  YS02001647YS02001649 CONDUIT   1500.51     0  01:43      2.31    0.79    0.79
  YS02001649YS02001757 CONDUIT   1758.02     0  01:44      2.52    1.07    0.84
  YS02001652YS02001649 CONDUIT    335.68     0  01:44      1.11    0.17    0.74
  YS02001655YS02001652 CONDUIT    305.96     0  01:44      1.81    0.15    0.50
  YS02001658YS02001655 CONDUIT    281.75     0  01:40      1.92    0.12    0.31
  YS02001661YS02001658 CONDUIT    281.82     0  01:40      2.07    0.11    0.23
  YS02001664YS02001661 CONDUIT    281.58     0  01:40      1.86    0.09    0.25
  YS02001745YS02001748 CONDUIT    198.04     0  01:40      1.96    0.08    0.19
  YS02001748YS02001751 CONDUIT    198.02     0  01:40      1.64    0.10    0.21
  YS02001751YS02001754 CONDUIT    200.89     0  01:41      1.66    0.10    0.32
  YS02001754YS02001757 CONDUIT    226.75     0  01:45      0.86    0.09    0.66
  YS02001757CaochengTiaoxuchi CONDUIT   2336.32     0  01:47      3.57    1.01    0.88
  YS02001759YS02001757 CONDUIT    554.48     0  01:46      1.28    0.39    0.78
  YS02001762YS02001759 CONDUIT    366.41     0  01:48      0.66    0.42    0.73
  YS02001765YS02001762 CONDUIT    347.87     0  01:48      0.78    0.33    0.69
  YS02001767YS02001765 CONDUIT    342.61     0  01:47      0.93    0.43    0.66
  YS02001770YS02001767 CONDUIT    357.72     0  01:47      0.93    1.42    0.65
  YS02001774YS02001770 CONDUIT     61.73     0  01:51      0.21    0.04    0.69
  YS02001779YS02001774 CONDUIT     48.88     0  01:51      0.12    0.02    0.61
  YS02001783YS02001784 CONDUIT    928.71     0  01:46      1.85    1.28    1.00
  YS02001784YS02001785 CONDUIT    929.48     0  01:46      1.93    2.16    0.91
  YS02001786YS02001788 CONDUIT    930.70     0  01:46      2.34    1.79    0.74
  YS02001788YS02001790 CONDUIT    931.88     0  01:46      2.46    0.69    0.71
  YS02001790YS02001791 CONDUIT    995.60     0  01:47      3.10    1.08    0.61
  YS02001791YS02001793 CONDUIT    941.94     0  01:48      6.20    0.40    0.35
  YS02001793JiankangQianchi CONDUIT    940.84     0  01:46      1.94    0.07    0.59
  YS02001882YS02001884 CONDUIT     28.17     0  01:40      0.13    0.03    0.96
  YS02001884YS02001887 CONDUIT     79.64     0  01:39      0.16    0.11    1.00
  YS02001887YS02001890 CONDUIT    286.60     0  01:41      0.40    0.49    1.00
  YS02001890YS02001895 CONDUIT    266.49     0  01:41      0.40    0.12    0.95
  YS02001895YS02001898 CONDUIT    236.39     0  01:45      0.52    0.41    0.89
  YS02001898YS02001901 CONDUIT    225.41     0  01:45      0.34    0.15    0.96
  YS02001901YS02001904 CONDUIT    221.90     0  01:45      0.40    0.34    1.00
  YS02001904YS02001907 CONDUIT    221.72     0  01:45      0.30    0.08    1.00
  YS02001907YS02006553 CONDUIT    646.56     0  01:49      0.72    0.76    1.00
  YS02001910YS02001907 CONDUIT    445.30     0  01:48      0.57    0.25    1.00
  YS02001915YS02001910 CONDUIT    444.64     0  01:48      0.57    0.22    0.98
  YS02001918YS02001915 CONDUIT    184.56     0  01:49      0.44    0.10    0.78
  YS02001920YS02001918 CONDUIT    172.09     0  01:47      0.72    0.17    0.64
  YS02001923YS02001920 CONDUIT    157.28     0  01:45      0.82    0.07    0.55
  YS02001926YS02001923 CONDUIT    142.94     0  01:44      0.88    0.20    0.26
  YS02001929YS02001926 CONDUIT    143.05     0  01:44      0.96    0.07    0.24
  YS02006553YS02006556 CONDUIT    646.70     0  01:49      0.82    0.55    1.00
  YS02006556YS02006558 CONDUIT    646.18     0  01:49      0.82    0.51    1.00
  YS02006558YS02006561 CONDUIT    928.20     0  01:46      3.53    2.05    0.88
  YS02006561YS02001783 CONDUIT    928.69     0  01:46      2.19    0.48    0.79
  YS02163301YS02001633 CONDUIT    874.39     0  01:43      1.11    0.82    1.00
  YS02163601YS02164001 CONDUIT   1186.62     0  01:43      1.51    1.05    1.00
  YS02164001YS02001641 CONDUIT   1185.13     0  01:43      1.51    1.62    1.00
  CC-R1                PUMP       683.00     0  01:10              1.00
  CC-R2                PUMP       683.00     0  00:05              1.00
  CC-S1                PUMP       200.00     0  00:05              1.00
  CC-S2                PUMP       200.00     0  00:05              1.00
  JK-R1                PUMP      1000.00     0  00:05              1.00
  JK-R2                PUMP      1000.00     0  01:40              1.00
  JK-S                 PUMP       300.00     0  00:05              1.00
  
  
  ***************************
  Flow Classification Summary
  ***************************
  
  -------------------------------------------------------------------------------------
                      Adjusted    ---------- Fraction of Time in Flow Class ---------- 
                       /Actual         Up    Down  Sub   Sup   Up    Down  Norm  Inlet 
  Conduit               Length    Dry  Dry   Dry   Crit  Crit  Crit  Crit  Ltd   Ctrl  
  -------------------------------------------------------------------------------------
  1                       1.00   0.00  0.00  0.00  0.00  1.00  0.00  0.00  0.30  0.00
  WS02003060WS02003069    1.00   0.00  0.00  0.00  0.97  0.03  0.00  0.00  0.81  0.00
  WS02003066WSF200        1.00   0.03  0.00  0.00  0.00  0.97  0.00  0.00  0.91  0.00
  WS02003067WS02003066    1.00   0.02  0.01  0.00  0.97  0.00  0.00  0.00  0.00  0.00
  WS02003069WS02003072    1.00   0.00  0.00  0.00  0.99  0.01  0.00  0.00  0.83  0.00
  WS02003072WS02003073    1.00   0.00  0.00  0.00  0.00  0.00  0.00  1.00  0.00  0.00
  WS02004401WS02004402    1.00   0.00  0.00  0.00  1.00  0.00  0.00  0.00  0.00  0.00
  WS02004402WS02004403    1.00   0.00  0.00  0.00  1.00  0.00  0.00  0.00  0.00  0.00
  WS02004403WS02004404    1.00   0.00  0.00  0.00  1.00  0.00  0.00  0.00  0.00  0.00
  WS02004404WS02004405    1.00   0.00  0.00  0.00  1.00  0.00  0.00  0.00  0.01  0.00
  WS02004405WS02004406    1.00   0.00  0.00  0.00  1.00  0.00  0.00  0.00  0.00  0.00
  WS02004406WS02004407    1.00   0.00  0.00  0.00  1.00  0.00  0.00  0.00  0.00  0.00
  WS02004407WS02004409    1.00   0.00  0.00  0.00  0.99  0.01  0.00  0.00  0.99  0.00
  WS02004409WS02004410    1.00   0.00  0.00  0.00  0.99  0.00  0.00  0.00  0.00  0.00
  WS02004410WS02004411    1.00   0.01  0.00  0.00  0.99  0.00  0.00  0.00  0.00  0.00
  WS02004411WS02004412    1.00   0.01  0.00  0.00  0.99  0.00  0.00  0.00  0.00  0.00
  WS02004412WS02004413    1.00   0.01  0.00  0.00  0.99  0.00  0.00  0.00  0.00  0.00
  WS02004413WS02003067    1.00   0.01  0.01  0.00  0.00  0.00  0.98  0.00  0.00  0.00
  WS02006109WS02006110    1.00   0.00  0.00  0.00  1.00  0.00  0.00  0.00  0.00  0.00
  WS02006110WS02006113    1.00   0.00  0.00  0.00  1.00  0.00  0.00  0.00  0.00  0.00
  WS02006111WS02006112    1.00   0.00  0.00  0.00  1.00  0.00  0.00  0.00  1.00  0.00
  WS02006112WS02006115    1.00   0.00  0.00  0.00  1.00  0.00  0.00  0.00  0.00  0.00
  WS02006113WS02006111    1.00   0.00  0.00  0.00  0.01  0.99  0.00  0.00  0.11  0.00
  WS02006115WS02006116    1.00   0.00  0.00  0.00  1.00  0.00  0.00  0.00  0.00  0.00
  WS02006116WS02004401    1.00   0.00  0.00  0.00  1.00  0.00  0.00  0.00  0.00  0.00
  WS02006228WS02006109    1.00   0.00  0.00  0.00  1.00  0.00  0.00  0.00  0.00  0.00
  WS02006229WS02006228    1.00   0.00  0.00  0.00  1.00  0.00  0.00  0.00  0.00  0.00
  WS02006230WS02006229    1.00   0.00  0.00  0.00  1.00  0.00  0.00  0.00  0.04  0.00
  WS02006231WS02006230    1.00   0.00  0.00  0.00  0.17  0.00  0.83  0.00  0.00  0.00
  WS02006232WS02006231    1.00   0.00  0.00  0.00  0.99  0.00  0.01  0.00  0.00  0.00
  WS02006234WS02006232    1.00   0.00  0.00  0.00  0.99  0.00  0.00  0.00  0.04  0.00
  WS02006235WS02006234    1.00   0.01  0.00  0.00  0.92  0.00  0.07  0.00  0.00  0.00
  WS02006238WS02006235    1.00   0.01  0.00  0.00  0.99  0.00  0.00  0.00  0.01  0.00
  WS02006239WS02006238    1.00   0.01  0.00  0.00  0.99  0.00  0.00  0.00  0.14  0.00
  WS02006240WS02006239    1.00   0.01  0.00  0.00  0.66  0.00  0.00  0.33  0.06  0.00
  WS02006242WS02006240    1.00   0.01  0.00  0.00  0.98  0.00  0.01  0.00  0.00  0.00
  WS02006243WS02006242    1.00   0.01  0.00  0.00  0.98  0.00  0.00  0.01  0.67  0.00
  WS02006245WS02006243    1.00   0.01  0.00  0.00  0.71  0.00  0.00  0.28  0.01  0.00
  WS02006247WS02006245    1.00   0.01  0.00  0.00  0.95  0.00  0.00  0.04  0.00  0.00
  WS02006248WS02006247    1.00   0.01  0.00  0.00  0.97  0.00  0.00  0.02  0.60  0.00
  WS02006249WS02006248    1.00   0.00  0.01  0.00  0.32  0.00  0.67  0.00  0.00  0.00
  WS02006251WS02006249    1.00   0.00  0.00  0.00  0.99  0.01  0.00  0.00  0.66  0.00
  WS02006252WS02006251    1.00   0.01  0.59  0.00  0.04  0.00  0.36  0.00  0.00  0.00
  WS02006256WS02006235    1.00   0.01  0.00  0.00  0.96  0.03  0.00  0.00  0.01  0.00
  WSF200WS02003060        1.00   0.00  0.03  0.00  0.53  0.44  0.00  0.00  0.77  0.00
  YS02001580YS02001583    1.00   0.21  0.66  0.00  0.13  0.00  0.00  0.00  0.75  0.00
  YS02001583YS02001586    1.00   0.47  0.34  0.00  0.19  0.00  0.00  0.00  0.75  0.00
  YS02001586YS02001590    1.00   0.13  0.00  0.00  0.33  0.05  0.00  0.49  0.33  0.00
  YS02001590YS02001593    1.00   0.13  0.01  0.00  0.05  0.00  0.81  0.00  0.00  0.00
  YS02001593YS02001596    1.00   0.14  0.00  0.00  0.07  0.01  0.00  0.79  0.02  0.00
  YS02001596YS02001600    1.00   0.14  0.00  0.00  0.13  0.02  0.00  0.71  0.06  0.00
  YS02001600YS02001601    1.00   0.13  0.01  0.00  0.86  0.00  0.00  0.00  0.65  0.00
  YS02001601YS02001602    1.00   0.13  0.02  0.00  0.86  0.00  0.00  0.00  0.00  0.00
  YS02001602YS02001605    1.00   0.14  0.00  0.00  0.86  0.00  0.00  0.00  0.00  0.00
  YS02001605YS02001607    1.00   0.15  0.00  0.00  0.85  0.00  0.00  0.00  0.00  0.00
  YS02001607YS02001610    1.00   0.14  0.01  0.00  0.85  0.00  0.00  0.00  0.02  0.00
  YS02001610YS02001613    1.00   0.13  0.00  0.00  0.87  0.00  0.00  0.00  0.02  0.00
  YS02001613YS02001616    1.00   0.13  0.00  0.00  0.87  0.00  0.00  0.00  0.01  0.00
  YS02001616YS02001619    1.00   0.13  0.00  0.00  0.87  0.00  0.00  0.00  0.00  0.00
  YS02001619YS02001622    1.00   0.13  0.00  0.00  0.87  0.00  0.00  0.00  0.32  0.00
  YS02001622YS02001625    1.00   0.13  0.00  0.00  0.87  0.00  0.00  0.00  0.06  0.00
  YS02001625YS02001629    1.00   0.13  0.06  0.00  0.08  0.00  0.72  0.00  0.00  0.00
  YS02001629YS02163301    1.00   0.17  0.01  0.00  0.82  0.00  0.00  0.00  0.00  0.00
  YS02001633YS02163601    1.00   0.00  0.01  0.00  0.99  0.00  0.00  0.00  0.16  0.00
  YS02001641YS02001644    1.00   0.00  0.01  0.00  0.99  0.00  0.00  0.00  0.00  0.00
  YS02001644YS02001647    1.00   0.00  0.19  0.00  0.81  0.00  0.00  0.00  0.00  0.00
  YS02001647YS02001649    1.00   0.00  0.19  0.00  0.46  0.35  0.00  0.00  0.61  0.00
  YS02001649YS02001757    1.00   0.00  0.00  0.00  0.63  0.37  0.00  0.00  0.60  0.00
  YS02001652YS02001649    1.00   0.00  0.00  0.00  0.96  0.04  0.00  0.00  0.80  0.00
  YS02001655YS02001652    1.00   0.00  0.00  0.00  0.10  0.02  0.00  0.88  0.08  0.00
  YS02001658YS02001655    1.00   0.00  0.15  0.00  0.57  0.28  0.00  0.00  0.80  0.00
  YS02001661YS02001658    1.00   0.15  0.00  0.00  0.42  0.43  0.00  0.00  0.79  0.00
  YS02001664YS02001661    1.00   0.13  0.00  0.00  0.79  0.08  0.00  0.00  0.87  0.00
  YS02001745YS02001748    1.00   0.00  0.00  0.00  0.00  0.00  0.00  1.00  0.00  0.00
  YS02001748YS02001751    1.00   0.00  0.00  0.00  0.75  0.25  0.00  0.00  0.86  0.00
  YS02001751YS02001754    1.00   0.00  0.00  0.00  0.05  0.01  0.00  0.94  0.06  0.00
  YS02001754YS02001757    1.00   0.00  0.00  0.00  1.00  0.00  0.00  0.00  0.92  0.00
  YS02001757CaochengTiaoxuchi    1.00   0.00  0.00  0.00  0.97  0.03  0.00  0.00  0.89  0.00
  YS02001759YS02001757    1.00   0.00  0.00  0.00  1.00  0.00  0.00  0.00  0.71  0.00
  YS02001762YS02001759    1.00   0.00  0.00  0.00  1.00  0.00  0.00  0.00  0.05  0.00
  YS02001765YS02001762    1.00   0.00  0.00  0.00  1.00  0.00  0.00  0.00  0.80  0.00
  YS02001767YS02001765    1.00   0.00  0.00  0.00  1.00  0.00  0.00  0.00  0.00  0.00
  YS02001770YS02001767    1.00   0.00  0.00  0.00  1.00  0.00  0.00  0.00  0.00  0.00
  YS02001774YS02001770    1.00   0.00  0.14  0.00  0.66  0.00  0.19  0.00  0.04  0.00
  YS02001779YS02001774    1.00   0.00  0.00  0.00  1.00  0.00  0.00  0.00  0.87  0.00
  YS02001783YS02001784    1.00   0.00  0.19  0.00  0.81  0.00  0.00  0.00  0.58  0.00
  YS02001784YS02001785    1.00   0.00  0.00  0.00  1.00  0.00  0.00  0.00  0.18  0.00
  YS02001786YS02001788    1.00   0.00  0.00  0.00  0.78  0.22  0.00  0.00  0.00  0.00
  YS02001788YS02001790    1.00   0.00  0.00  0.00  0.20  0.80  0.00  0.00  0.89  0.00
  YS02001790YS02001791    1.00   0.00  0.00  0.00  0.01  0.99  0.00  0.00  0.16  0.00
  YS02001791YS02001793    1.00   0.00  0.00  0.00  0.00  1.00  0.00  0.00  0.00  0.00
  YS02001793JiankangQianchi    1.00   0.00  0.00  0.00  1.00  0.00  0.00  0.00  1.00  0.00
  YS02001882YS02001884    1.00   0.17  0.01  0.00  0.82  0.00  0.00  0.00  0.00  0.00
  YS02001884YS02001887    1.00   0.06  0.05  0.00  0.89  0.00  0.00  0.00  0.00  0.00
  YS02001887YS02001890    1.00   0.00  0.00  0.00  0.97  0.00  0.03  0.00  0.00  0.00
  YS02001890YS02001895    1.00   0.00  0.18  0.00  0.82  0.00  0.00  0.00  0.00  0.00
  YS02001895YS02001898    1.00   0.18  0.00  0.00  0.80  0.00  0.01  0.00  0.00  0.00
  YS02001898YS02001901    1.00   0.18  0.00  0.00  0.82  0.00  0.00  0.00  0.01  0.00
  YS02001901YS02001904    1.00   0.18  0.00  0.00  0.82  0.00  0.00  0.00  0.00  0.00
  YS02001904YS02001907    1.00   0.00  0.18  0.00  0.82  0.00  0.00  0.00  0.00  0.00
  YS02001907YS02006553    1.00   0.00  0.02  0.00  0.98  0.00  0.00  0.00  0.00  0.00
  YS02001910YS02001907    1.00   0.00  0.00  0.00  0.97  0.00  0.00  0.03  0.12  0.00
  YS02001915YS02001910    1.00   0.00  0.00  0.00  0.97  0.03  0.00  0.00  0.18  0.00
  YS02001918YS02001915    1.00   0.00  0.00  0.00  0.98  0.02  0.00  0.00  0.80  0.00
  YS02001920YS02001918    1.00   0.00  0.00  0.00  1.00  0.00  0.00  0.00  0.01  0.00
  YS02001923YS02001920    1.00   0.00  0.00  0.00  1.00  0.00  0.00  0.00  0.97  0.00
  YS02001926YS02001923    1.00   0.00  0.07  0.00  0.00  0.00  0.92  0.00  0.00  0.00
  YS02001929YS02001926    1.00   0.00  0.13  0.00  0.87  0.00  0.00  0.00  0.87  0.00
  YS02006553YS02006556    1.00   0.01  0.00  0.00  0.99  0.00  0.00  0.00  0.03  0.00
  YS02006556YS02006558    1.00   0.00  0.00  0.00  1.00  0.00  0.00  0.00  0.00  0.00
  YS02006558YS02006561    1.00   0.19  0.00  0.00  0.00  0.81  0.00  0.00  0.21  0.00
  YS02006561YS02001783    1.00   0.19  0.00  0.00  0.04  0.77  0.00  0.00  0.73  0.00
  YS02163301YS02001633    1.00   0.00  0.17  0.00  0.83  0.00  0.00  0.00  0.00  0.00
  YS02163601YS02164001    1.00   0.00  0.08  0.00  0.92  0.00  0.00  0.00  0.00  0.00
  YS02164001YS02001641    1.00   0.01  0.07  0.00  0.92  0.00  0.00  0.00  0.06  0.00
  
  
  *************************
  Conduit Surcharge Summary
  *************************
  
  ----------------------------------------------------------------------------
                                                           Hours        Hours 
                         --------- Hours Full --------   Above Full   Capacity
  Conduit                Both Ends  Upstream  Dnstream   Normal Flow   Limited
  ----------------------------------------------------------------------------
  WS02003072WS02003073        0.01      0.01      0.01      0.61         0.01
  WS02004401WS02004402        0.01      0.01      0.01      0.01         0.01
  WS02004402WS02004403        0.01      0.01      0.01      0.01         0.01
  WS02004404WS02004405        0.01      0.01      0.01      2.47         0.01
  WS02004405WS02004406        0.01      0.01      0.01      0.13         0.01
  WS02006109WS02006110        0.21      0.22      1.13      0.29         0.01
  WS02006110WS02006113        0.01      0.01      1.12      0.01         0.01
  WS02006111WS02006112        0.01      0.01      1.43      0.01         0.01
  WS02006112WS02006115        0.01      0.01      0.19      0.01         0.01
  WS02006113WS02006111        0.01      0.01      0.01      0.01         0.01
  WS02006115WS02006116        0.01      0.01      0.01      0.01         0.01
  WS02006116WS02004401        0.01      0.01      0.01      0.01         0.01
  WS02006228WS02006109        1.10      1.14      1.10      1.61         1.10
  WS02006229WS02006228        1.09      1.10      1.09      1.43         1.08
  WS02006230WS02006229        1.28      1.38      1.28      2.80         1.28
  WS02006231WS02006230        0.23      0.23      0.36      2.39         0.01
  WS02006232WS02006231        0.32      0.32      1.14      0.38         0.01
  WS02006234WS02006232        1.06      1.07      1.14      0.35         0.35
  WS02006235WS02006234        0.67      0.68      1.07      2.15         0.01
  WS02006238WS02006235        1.08      1.08      1.14      0.01         0.01
  WS02006239WS02006238        1.09      1.12      1.09      1.17         0.89
  WS02006240WS02006239        1.07      1.09      1.08      1.14         0.87
  WS02006242WS02006240        1.09      1.09      1.21      1.33         0.01
  WS02006243WS02006242        1.04      1.04      1.14      0.01         0.03
  WS02006245WS02006243        0.99      0.99      1.03      0.93         0.69
  WS02006247WS02006245        0.99      1.00      0.99      1.81         0.98
  WS02006248WS02006247        0.97      0.97      0.99      0.01         0.03
  WS02006249WS02006248        0.97      0.97      0.97      1.74         0.01
  WS02006251WS02006249        0.96      0.98      0.97      1.27         0.91
  WS02006252WS02006251        1.34      1.34      1.37      1.35         0.01
  WS02006256WS02006235        2.23      2.26      6.54      0.90         0.01
  YS02001580YS02001583        0.01      0.01      0.02      0.01         0.01
  YS02001583YS02001586        0.01      0.01      0.24      0.01         0.01
  YS02001586YS02001590        0.25      0.25      0.32      0.01         0.01
  YS02001590YS02001593        0.32      0.32      0.34      0.33         0.01
  YS02001593YS02001596        0.33      0.33      0.42      0.01         0.01
  YS02001596YS02001600        0.45      0.45      0.53      0.01         0.01
  YS02001600YS02001601        0.57      0.57      0.83      0.01         0.01
  YS02001601YS02001602        0.72      0.72      0.87      0.56         0.01
  YS02001602YS02001605        0.68      0.68      0.72      1.72         0.01
  YS02001605YS02001607        0.64      0.68      0.64      0.78         0.64
  YS02001607YS02001610        0.24      0.24      0.27      0.01         0.01
  YS02001610YS02001613        0.23      0.23      0.27      0.01         0.01
  YS02001613YS02001616        0.19      0.19      0.23      0.01         0.01
  YS02001616YS02001619        0.17      0.17      0.19      0.01         0.01
  YS02001619YS02001622        0.16      0.17      0.16      0.35         0.16
  YS02001622YS02001625        0.16      0.16      0.36      0.01         0.01
  YS02001625YS02001629        0.01      0.01      0.36      0.01         0.01
  YS02001629YS02163301        0.34      0.34      0.35      0.21         0.20
  YS02001633YS02163601        0.37      0.37      0.39      0.26         0.26
  YS02001641YS02001644        0.20      0.27      0.20      0.92         0.20
  YS02001644YS02001647        0.01      0.01      0.20      0.01         0.01
  YS02001649YS02001757        0.01      0.01      0.01      0.03         0.01
  YS02001757CaochengTiaoxuchi        0.01      0.01      0.90      0.03         0.01
  YS02001770YS02001767        0.01      0.01      0.01      0.23         0.01
  YS02001783YS02001784        0.09      0.13      0.09      0.29         0.09
  YS02001784YS02001785        0.01      0.09      0.01      0.48         0.01
  YS02001786YS02001788        0.01      0.01      0.01      0.37         0.01
  YS02001790YS02001791        0.01      0.01      0.01      0.06         0.01
  YS02001793JiankangQianchi        0.01      0.01      6.31      0.01         0.01
  YS02001884YS02001887        0.08      0.08      0.11      0.01         0.01
  YS02001887YS02001890        0.14      0.14      0.16      0.01         0.01
  YS02001890YS02001895        0.01      0.01      0.18      0.01         0.01
  YS02001898YS02001901        0.01      0.01      0.08      0.01         0.01
  YS02001901YS02001904        0.05      0.05      0.08      0.01         0.01
  YS02001904YS02001907        0.05      0.05      0.36      0.01         0.01
  YS02001907YS02006553        0.48      0.48      0.53      0.01         0.01
  YS02001910YS02001907        0.18      0.18      0.35      0.01         0.01
  YS02001915YS02001910        0.01      0.01      0.18      0.01         0.01
  YS02006553YS02006556        0.27      0.27      0.36      0.01         0.01
  YS02006556YS02006558        0.31      0.31      0.37      0.01         0.01
  YS02006558YS02006561        0.01      0.26      0.01      0.43         0.01
  YS02006561YS02001783        0.01      0.01      0.13      0.01         0.01
  YS02163301YS02001633        0.35      0.35      0.38      0.01         0.01
  YS02163601YS02164001        0.29      0.29      0.39      0.10         0.01
  YS02164001YS02001641        0.27      0.29      0.27      0.44         0.27
  
  
  ***************
  Pumping Summary
  ***************
  
  ---------------------------------------------------------------------------------------------------------
                                                  Min       Avg       Max     Total     Power    % Time Off
                        Percent   Number of      Flow      Flow      Flow    Volume     Usage    Pump Curve
  Pump                 Utilized   Start-Ups       LPS       LPS       LPS  10^6 ltr     Kw-hr    Low   High
  ---------------------------------------------------------------------------------------------------------
  CC-R1                    9.22          30      0.00    683.00    683.00     1.813     31.71    0.0   51.9
  CC-R2                   12.55          35      0.00    683.00    683.00     2.468     42.53    0.0   66.8
  CC-S1                   20.14          21      0.00    200.00    200.00     1.160      7.45    0.0    0.0
  CC-S2                   20.72          26      0.00    200.00    200.00     1.193      7.79    0.0    0.0
  JK-R1                    2.77          13      0.00   1000.00   1000.00     0.797      6.67    0.0    0.0
  JK-R2                    2.28          16      0.00   1000.00   1000.00     0.655      5.24    0.0    0.0
  JK-S                    10.40          43      0.00    300.00    300.00     0.899     16.17    0.0    0.0
  

  Analysis begun on:  Fri Aug  4 09:50:57 2023
  Analysis ended on:  Fri Aug  4 09:51:02 2023
  Total elapsed time: 00:00:05