
  OWA STORM WATER MANAGEMENT MODEL - VERSION v5.2.3 (OWA 2023-06-06)
  ------------------------------------------------------------

  WARNING 04: minimum elevation drop used for Conduit WS02004404WS02004405
  WARNING 03: negative offset ignored for Link YS02001904YS02001907
  
  ****************
  Analysis Options
  ****************
  Flow Units ............... LPS
  Process Models:
    Rainfall/Runoff ........ YES
    RDII ................... NO
    Snowmelt ............... NO
    Groundwater ............ NO
    Flow Routing ........... YES
    Ponding Allowed ........ NO
    Water Quality .......... NO
  Infiltration Method ...... HORTON
  Flow Routing Method ...... DYNWAVE
  Surcharge Method ......... EXTRAN
  Starting Date ............ 08/28/2015 08:00:00
  Ending Date .............. 08/28/2015 16:00:00
  Antecedent Dry Days ...... 8.0
  Report Time Step ......... 00:01:00
  Wet Time Step ............ 00:01:00
  Dry Time Step ............ 00:01:00
  Routing Time Step ........ 30.00 sec
  Variable Time Step ....... YES
  Maximum Trials ........... 8
  Number of Threads ........ 2
  Head Tolerance ........... 0.001500 m
  
  
  **************************        Volume         Depth
  Runoff Quantity Continuity     hectare-m            mm
  **************************     ---------       -------
  Total Precipitation ......         0.859        25.887
  Evaporation Loss .........         0.000         0.000
  Infiltration Loss ........         0.085         2.561
  Surface Runoff ...........         0.741        22.339
  Final Storage ............         0.033         0.993
  Continuity Error (%) .....        -0.021
  
  
  **************************        Volume        Volume
  Flow Routing Continuity        hectare-m      10^6 ltr
  **************************     ---------     ---------
  Dry Weather Inflow .......         0.025         0.251
  Wet Weather Inflow .......         0.741         7.405
  Groundwater Inflow .......         0.000         0.000
  RDII Inflow ..............         0.000         0.000
  External Inflow ..........         0.083         0.834
  External Outflow .........         0.893         8.927
  Flooding Loss ............         0.049         0.488
  Evaporation Loss .........         0.000         0.000
  Exfiltration Loss ........         0.000         0.000
  Initial Stored Volume ....         0.243         2.431
  Final Stored Volume ......         0.182         1.819
  Continuity Error (%) .....        -2.870
  
  
  *************************
  Highest Continuity Errors
  *************************
  Node YS02001583 (-8.22%)
  Node YS02001884 (4.67%)
  Node WS02006256 (-4.42%)
  Node YS02001774 (2.56%)
  Node WS02006111 (-1.29%)
  
  
  ***************************
  Time-Step Critical Elements
  ***************************
  Link WS02006252WS02006251 (30.28%)
  Link WS02006238WS02006235 (29.33%)
  Link WS02004404WS02004405 (21.32%)
  Link WS02003066WSF200 (5.55%)
  Link WS02006235WS02006234 (3.63%)
  
  
  ********************************
  Highest Flow Instability Indexes
  ********************************
  Link WS02006113WS02006111 (30)
  Link WS02006256WS02006235 (20)
  Link WS02004404WS02004405 (16)
  Link WS02004403WS02004404 (13)
  Link WS02006238WS02006235 (13)
  
  
  *********************************
  Most Frequent Nonconverging Nodes
  *********************************
  Node CC-1 (8.86%)
  Node CC-2 (8.86%)
  Node JK-1 (8.86%)
  Node JK-2 (8.86%)
  Node WSC (8.86%)
  
  
  *************************
  Routing Time Step Summary
  *************************
  Minimum Time Step           :     0.00 sec
  Average Time Step           :     2.86 sec
  Maximum Time Step           :    30.00 sec
  % of Time in Steady State   :     0.00
  Average Iterations per Step :     2.97
  % of Steps Not Converging   :     8.86
  Time Step Frequencies       :
     30.000 - 13.228 sec      :     0.01 %
     13.228 -  5.833 sec      :    15.63 %
      5.833 -  2.572 sec      :    31.30 %
      2.572 -  1.134 sec      :    19.92 %
      1.134 -  0.500 sec      :    33.14 %
  
  
  ***************************
  Subcatchment Runoff Summary
  ***************************
  
  ------------------------------------------------------------------------------------------------------------------------------
                            Total      Total      Total      Total     Imperv       Perv      Total       Total     Peak  Runoff
                           Precip      Runon       Evap      Infil     Runoff     Runoff     Runoff      Runoff   Runoff   Coeff
  Subcatchment                 mm         mm         mm         mm         mm         mm         mm    10^6 ltr      LPS
  ------------------------------------------------------------------------------------------------------------------------------
  sub60                     25.89       0.00       0.00       1.57      21.57       1.54      23.11        0.30   221.09   0.893
  sub61                     25.89       0.00       0.00       2.28      20.35       2.12      22.47        0.41   303.14   0.868
  sub62                     25.89       0.00       0.00       1.04      22.52       1.03      23.55        0.65   423.33   0.910
  sub63                     25.89       0.00       0.00       4.24      17.40       3.27      20.68        0.47   323.50   0.799
  sub64                     25.89       0.00       0.00       2.14      20.79       1.74      22.54        0.54   332.93   0.871
  sub65                     25.89       0.00       0.00       1.85      21.26       1.51      22.78        0.63   370.19   0.880
  sub66                     25.89       0.00       0.00       5.06      17.30       2.45      19.75        0.92   451.81   0.763
  sub67                     25.89       0.00       0.00       1.00      22.56       1.07      23.64        0.44   343.70   0.913
  sub68                     25.89       0.00       0.00       1.89      21.07       1.73      22.80        0.63   431.10   0.881
  sub69                     25.89       0.00       0.00       1.64      21.89       2.25      24.14        0.89   500.36   0.932
  sub70                     25.89       0.00       0.00       5.24      16.92       3.56      20.48        0.59   257.20   0.791
  sub71                     25.89       0.00       0.00       1.08      22.48       1.00      23.48        0.61   364.68   0.907
  sub72                     25.89       0.00       0.00       0.96      22.67       0.85      23.52        0.32   171.48   0.909
  
  
  ******************
  Node Depth Summary
  ******************
  
  ---------------------------------------------------------------------------------
                                 Average  Maximum  Maximum  Time of Max    Reported
                                   Depth    Depth      HGL   Occurrence   Max Depth
  Node                 Type       Meters   Meters   Meters  days hr:min      Meters
  ---------------------------------------------------------------------------------
  WS02003060           JUNCTION     0.19     0.38     5.32     0  02:56        0.38
  WS02003066           JUNCTION     0.16     0.30     5.85     0  02:56        0.30
  WS02003067           JUNCTION     0.45     0.70     6.02     0  02:56        0.70
  WS02003069           JUNCTION     0.21     0.43     5.01     0  02:57        0.43
  WS02003072           JUNCTION     0.27     0.50     4.87     0  02:58        0.50
  WS02003073           JUNCTION     0.15     0.30     4.36     0  02:59        0.30
  WS02004401           JUNCTION     0.54     0.88     6.88     0  02:54        0.88
  WS02004402           JUNCTION     0.58     0.90     6.86     0  02:54        0.90
  WS02004403           JUNCTION     0.60     0.92     6.85     0  02:51        0.92
  WS02004404           JUNCTION     0.68     1.02     6.87     0  02:55        1.00
  WS02004405           JUNCTION     0.67     0.97     6.82     0  02:55        0.96
  WS02004406           JUNCTION     0.69     0.96     6.79     0  02:54        0.96
  WS02004407           JUNCTION     0.15     0.30     6.61     0  02:54        0.30
  WS02004409           JUNCTION     0.32     0.67     6.44     0  02:54        0.67
  WS02004410           JUNCTION     0.35     0.68     6.40     0  02:54        0.68
  WS02004411           JUNCTION     0.37     0.69     6.37     0  02:55        0.69
  WS02004412           JUNCTION     0.40     0.70     6.34     0  02:55        0.70
  WS02004413           JUNCTION     0.56     0.86     6.33     0  02:55        0.86
  WS02006109           JUNCTION     0.58     1.12     7.73     0  02:36        0.97
  WS02006110           JUNCTION     0.59     1.11     7.69     0  02:36        0.92
  WS02006111           JUNCTION     0.15     0.90     7.60     0  00:00        0.40
  WS02006112           JUNCTION     0.69     2.68     8.56     0  00:00        1.14
  WS02006113           JUNCTION     0.22     1.40     8.29     0  00:00        0.45
  WS02006115           JUNCTION     0.42     1.65     7.79     0  00:00        0.86
  WS02006116           JUNCTION     0.51     1.06     7.10     0  00:00        0.85
  WS02006228           JUNCTION     0.56     1.13     7.78     0  02:36        1.01
  WS02006229           JUNCTION     0.53     1.16     7.86     0  02:36        1.03
  WS02006230           JUNCTION     0.52     1.32     8.07     0  02:36        1.10
  WS02006231           JUNCTION     0.33     1.04     8.16     0  02:36        0.85
  WS02006232           JUNCTION     0.45     1.59     8.62     0  02:25        1.08
  WS02006234           JUNCTION     0.37     1.69     8.85     0  03:15        1.09
  WS02006235           JUNCTION     0.40     1.74     8.90     0  03:15        1.18
  WS02006238           JUNCTION     0.42     1.77     8.91     0  03:15        1.18
  WS02006239           JUNCTION     0.38     1.72     8.93     0  03:15        1.17
  WS02006240           JUNCTION     0.35     1.60     8.90     0  03:15        1.14
  WS02006242           JUNCTION     0.40     1.55     8.82     0  02:25        1.23
  WS02006243           JUNCTION     0.32     1.33     8.75     0  03:15        1.15
  WS02006245           JUNCTION     0.32     1.22     8.70     0  03:15        1.13
  WS02006247           JUNCTION     0.34     1.21     8.71     0  02:35        1.15
  WS02006248           JUNCTION     0.30     1.10     8.69     0  02:35        1.09
  WS02006249           JUNCTION     0.33     1.09     8.69     0  02:35        1.09
  WS02006251           JUNCTION     0.32     1.53     9.20     0  02:35        1.15
  WS02006252           JUNCTION     0.24     1.50     9.74     0  02:34        0.72
  WS02006256           JUNCTION     0.92     2.35     9.28     0  00:10        2.35
  WSF200               JUNCTION     0.13     0.29     5.52     0  02:56        0.29
  YS02001580           JUNCTION     0.06     1.05     9.59     0  02:25        0.61
  YS02001583           JUNCTION     0.09     1.14     9.64     0  02:25        0.66
  YS02001586           JUNCTION     0.15     1.13     9.30     0  02:25        0.99
  YS02001590           JUNCTION     0.24     1.40     9.26     0  02:25        1.25
  YS02001593           JUNCTION     0.18     1.33     9.19     0  02:25        1.19
  YS02001596           JUNCTION     0.25     1.69     9.11     0  02:25        1.66
  YS02001600           JUNCTION     0.31     1.87     9.00     0  02:25        1.83
  YS02001601           JUNCTION     0.50     2.06     8.90     0  02:24        2.06
  YS02001602           JUNCTION     0.41     1.87     8.77     0  02:24        1.87
  YS02001605           JUNCTION     0.38     1.78     8.68     0  02:24        1.66
  YS02001607           JUNCTION     0.36     1.68     8.53     0  02:25        1.38
  YS02001610           JUNCTION     0.40     1.68     8.48     0  02:24        1.42
  YS02001613           JUNCTION     0.36     1.70     8.54     0  02:25        1.37
  YS02001616           JUNCTION     0.30     1.61     8.52     0  02:25        1.39
  YS02001619           JUNCTION     0.27     1.61     8.54     0  02:25        1.27
  YS02001622           JUNCTION     0.26     1.62     8.52     0  02:24        1.37
  YS02001625           JUNCTION     0.51     1.78     8.38     0  02:25        1.78
  YS02001629           JUNCTION     0.37     1.85     8.40     0  02:25        1.85
  YS02001633           JUNCTION     0.44     1.95     8.40     0  02:25        1.95
  YS02001641           JUNCTION     0.42     1.53     7.96     0  02:25        1.24
  YS02001644           JUNCTION     0.41     1.36     7.79     0  02:28        1.17
  YS02001647           JUNCTION     0.20     0.84     7.45     0  02:27        0.82
  YS02001649           JUNCTION     0.23     0.96     7.35     0  02:26        0.94
  YS02001652           JUNCTION     0.12     0.75     7.34     0  02:26        0.73
  YS02001655           JUNCTION     0.08     0.48     7.33     0  02:29        0.46
  YS02001658           JUNCTION     0.05     0.26     7.40     0  02:26        0.26
  YS02001661           JUNCTION     0.11     0.31     7.72     0  02:25        0.31
  YS02001664           JUNCTION     0.05     0.21     8.14     0  02:25        0.21
  YS02001745           JUNCTION     0.04     0.20     7.71     0  02:25        0.20
  YS02001748           JUNCTION     0.05     0.23     7.30     0  02:25        0.22
  YS02001751           JUNCTION     0.05     0.31     7.19     0  02:29        0.31
  YS02001754           JUNCTION     0.09     0.64     7.25     0  02:30        0.57
  YS02001757           JUNCTION     0.23     0.95     7.21     0  02:28        0.93
  YS02001759           JUNCTION     0.17     0.85     7.22     0  02:28        0.84
  YS02001762           JUNCTION     0.16     0.82     7.22     0  02:29        0.81
  YS02001765           JUNCTION     0.15     0.78     7.23     0  02:28        0.76
  YS02001767           JUNCTION     0.15     0.75     7.24     0  02:28        0.75
  YS02001770           JUNCTION     0.16     0.76     7.26     0  02:28        0.76
  YS02001774           JUNCTION     0.23     0.84     7.26     0  02:28        0.83
  YS02001779           JUNCTION     0.07     0.58     7.27     0  02:28        0.57
  YS02001783           JUNCTION     0.21     1.01     7.15     0  02:29        1.00
  YS02001784           JUNCTION     0.23     0.93     6.99     0  02:29        0.92
  YS02001786           JUNCTION     0.20     0.76     6.79     0  02:29        0.76
  YS02001788           JUNCTION     0.14     0.57     6.55     0  02:29        0.57
  YS02001790           JUNCTION     0.17     0.66     6.30     0  02:30        0.65
  YS02001791           JUNCTION     0.11     0.40     5.87     0  02:30        0.39
  YS02001793           JUNCTION     0.06     0.20     5.03     0  02:32        0.19
  YS02001882           JUNCTION     0.26     1.48     8.20     0  02:26        1.21
  YS02001884           JUNCTION     0.34     1.52     8.14     0  02:26        1.29
  YS02001887           JUNCTION     0.42     2.00     8.54     0  02:28        2.00
  YS02001890           JUNCTION     0.45     1.81     8.32     0  02:28        1.81
  YS02001895           JUNCTION     0.23     1.24     7.98     0  02:28        1.13
  YS02001898           JUNCTION     0.24     1.24     7.97     0  02:28        1.14
  YS02001901           JUNCTION     0.34     1.33     7.94     0  02:28        1.27
  YS02001904           JUNCTION     0.32     1.34     7.97     0  02:28        1.24
  YS02001907           JUNCTION     0.63     1.96     8.25     0  02:28        1.96
  YS02001910           JUNCTION     0.43     1.76     8.26     0  02:28        1.76
  YS02001915           JUNCTION     0.26     1.25     7.97     0  02:27        1.19
  YS02001918           JUNCTION     0.12     0.85     7.92     0  02:29        0.84
  YS02001920           JUNCTION     0.20     0.91     7.92     0  02:29        0.90
  YS02001923           JUNCTION     0.08     0.66     7.92     0  02:29        0.64
  YS02001926           JUNCTION     0.12     0.48     7.92     0  02:30        0.48
  YS02001929           JUNCTION     0.05     0.21     7.90     0  02:30        0.19
  YS02006553           JUNCTION     0.63     2.19     8.47     0  02:28        2.19
  YS02006556           JUNCTION     0.61     2.31     8.62     0  02:28        2.31
  YS02006558           JUNCTION     0.65     1.69     7.96     0  02:28        1.54
  YS02006561           JUNCTION     0.12     0.59     7.25     0  02:29        0.57
  YS02163301           JUNCTION     0.39     2.00     8.51     0  02:25        2.00
  YS02163601           JUNCTION     0.48     1.81     8.21     0  02:25        1.63
  YS02164001           JUNCTION     0.41     1.64     8.09     0  02:25        1.35
  CC-1                 OUTFALL      0.00     0.00     0.00     0  00:00        0.00
  CC-2                 OUTFALL      0.00     0.00     0.00     0  00:00        0.00
  JK-1                 OUTFALL      0.00     0.00     0.00     0  00:00        0.00
  JK-2                 OUTFALL      0.00     0.00     0.00     0  00:00        0.00
  WSC                  OUTFALL      0.15     0.30     0.97     0  02:59        0.30
  CC-storage           STORAGE      0.67     1.22     6.72     0  02:48        1.22
  JK-storage           STORAGE      1.49     4.21     5.01     0  02:32        4.15
  
  
  *******************
  Node Inflow Summary
  *******************
  
  -------------------------------------------------------------------------------------------------
                                  Maximum  Maximum                  Lateral       Total        Flow
                                  Lateral    Total  Time of Max      Inflow      Inflow     Balance
                                   Inflow   Inflow   Occurrence      Volume      Volume       Error
  Node                 Type           LPS      LPS  days hr:min    10^6 ltr    10^6 ltr     Percent
  -------------------------------------------------------------------------------------------------
  WS02003060           JUNCTION     16.53   554.84     0  02:56       0.476        3.43       0.077
  WS02003066           JUNCTION      0.00   537.97     0  02:56           0        2.95       0.048
  WS02003067           JUNCTION      0.00   537.91     0  02:55           0        2.96       0.144
  WS02003069           JUNCTION      0.32   554.89     0  02:57     0.00922        3.43       0.121
  WS02003072           JUNCTION      0.00   554.66     0  02:57           0        3.43       0.210
  WS02003073           JUNCTION      1.82   556.38     0  02:58      0.0524        3.48       0.172
  WS02004401           JUNCTION      0.00  1677.78     0  00:00           0        3.07       0.381
  WS02004402           JUNCTION      0.00  1171.33     0  00:01           0        3.06       0.373
  WS02004403           JUNCTION      0.00   884.75     0  00:01           0        3.04       0.361
  WS02004404           JUNCTION      0.16   832.59     0  00:01     0.00467        3.04       0.283
  WS02004405           JUNCTION      0.04   776.49     0  00:01      0.0011        3.03       0.408
  WS02004406           JUNCTION      0.00   711.76     0  00:02           0        3.02       0.731
  WS02004407           JUNCTION      0.00   539.94     0  02:54           0        2.99       0.041
  WS02004409           JUNCTION      0.00   539.15     0  02:54           0        2.99       0.096
  WS02004410           JUNCTION      0.00   538.62     0  02:54           0        2.99       0.157
  WS02004411           JUNCTION      0.00   538.52     0  02:55           0        2.98       0.201
  WS02004412           JUNCTION      0.00   538.12     0  02:55           0        2.98       0.258
  WS02004413           JUNCTION      0.00   538.18     0  02:55           0        2.97       0.465
  WS02006109           JUNCTION      1.23  1308.01     0  00:00      0.0354           3       0.236
  WS02006110           JUNCTION      0.00   550.39     0  02:36           0        2.97      -1.204
  WS02006111           JUNCTION      0.00  1176.04     0  00:00           0           3      -1.271
  WS02006112           JUNCTION      0.00  2307.30     0  00:00           0        3.04      -0.009
  WS02006113           JUNCTION      0.00   565.14     0  02:36           0        2.96      -1.653
  WS02006115           JUNCTION      0.00   899.27     0  00:00           0        3.01      -1.055
  WS02006116           JUNCTION      0.00  1098.16     0  00:01           0        3.05      -0.751
  WS02006228           JUNCTION      0.00   549.11     0  02:36           0        2.94       0.175
  WS02006229           JUNCTION      0.00   548.46     0  02:36           0        2.93       0.358
  WS02006230           JUNCTION     10.28   543.10     0  02:36       0.296        2.92       0.033
  WS02006231           JUNCTION      0.00   539.07     0  03:15           0        2.61       0.131
  WS02006232           JUNCTION      0.00   538.25     0  03:15           0        2.62       0.287
  WS02006234           JUNCTION      0.00   537.82     0  03:15           0         2.6      -0.567
  WS02006235           JUNCTION      0.00   564.93     0  02:24           0        2.73       0.685
  WS02006238           JUNCTION      0.00   420.88     0  02:55           0        2.02      -0.364
  WS02006239           JUNCTION      0.00   421.22     0  02:55           0        1.93      -0.443
  WS02006240           JUNCTION      0.00   419.20     0  02:55           0        1.89       0.060
  WS02006242           JUNCTION      0.00   419.38     0  02:55           0        1.88       0.034
  WS02006243           JUNCTION      0.00   418.92     0  02:55           0        1.87      -0.646
  WS02006245           JUNCTION      0.00   418.57     0  02:55           0        1.88       0.724
  WS02006247           JUNCTION      0.00   418.16     0  02:55           0        1.88      -0.112
  WS02006248           JUNCTION      0.00   417.40     0  02:55           0        1.87      -0.333
  WS02006249           JUNCTION      0.00   473.96     0  03:40           0        1.98       1.163
  WS02006251           JUNCTION      0.08   411.43     0  02:35     0.00222        1.98       0.057
  WS02006252           JUNCTION      0.00   400.00     0  01:35           0        1.96      -0.898
  WS02006256           JUNCTION      0.00   300.26     0  00:10           0       0.969      -4.235
  WSF200               JUNCTION      0.00   538.02     0  02:56           0        2.95       0.018
  YS02001580           JUNCTION      0.00   124.75     0  02:24           0     0.00453       0.754
  YS02001583           JUNCTION      0.00   206.70     0  02:25           0      0.0152      -7.598
  YS02001586           JUNCTION    257.20   263.21     0  02:28       0.591       0.603       0.260
  YS02001590           JUNCTION      0.00   258.97     0  02:25           0       0.589      -0.038
  YS02001593           JUNCTION      0.00   259.05     0  02:25           0       0.589       0.004
  YS02001596           JUNCTION      0.00   259.07     0  02:25           0       0.589      -0.015
  YS02001600           JUNCTION      0.00   259.03     0  02:25           0       0.589       0.000
  YS02001601           JUNCTION    500.36   758.28     0  02:25       0.893        1.48       0.066
  YS02001602           JUNCTION      0.00   539.65     0  02:24           0        1.38       0.034
  YS02001605           JUNCTION      0.00   540.10     0  02:24           0        1.37       0.042
  YS02001607           JUNCTION      0.00   540.65     0  02:24           0        1.37       0.140
  YS02001610           JUNCTION      0.00   536.43     0  02:24           0        1.37       0.171
  YS02001613           JUNCTION      0.00   542.72     0  02:24           0        1.37       0.117
  YS02001616           JUNCTION      0.00   549.21     0  02:24           0        1.37       0.035
  YS02001619           JUNCTION    451.81   937.59     0  02:24       0.921        2.29      -0.007
  YS02001622           JUNCTION      0.00   938.00     0  02:24           0        2.29      -0.016
  YS02001625           JUNCTION      0.00   946.89     0  02:24           0        2.29       0.394
  YS02001629           JUNCTION      0.00   947.04     0  02:24           0        2.28       0.009
  YS02001633           JUNCTION    370.39  1298.81     0  02:28       0.633        2.91       0.125
  YS02001641           JUNCTION      0.00  1265.64     0  02:25           0        2.91       0.099
  YS02001644           JUNCTION    332.97  1598.22     0  02:25       0.542        3.45       0.093
  YS02001647           JUNCTION      0.00  1599.15     0  02:25           0        3.44       0.011
  YS02001649           JUNCTION      0.00  1953.41     0  02:26           0        3.91       0.011
  YS02001652           JUNCTION      0.00   382.43     0  02:26           0       0.472      -0.207
  YS02001655           JUNCTION      0.15   334.30     0  02:26     0.00443       0.473       0.164
  YS02001658           JUNCTION      0.00   324.50     0  02:25           0       0.469      -0.014
  YS02001661           JUNCTION      0.00   323.15     0  02:25           0       0.469       0.074
  YS02001664           JUNCTION    323.50   323.50     0  02:25       0.469       0.469      -0.008
  YS02001745           JUNCTION    221.09   221.09     0  02:25       0.304       0.304      -0.003
  YS02001748           JUNCTION      0.04   221.30     0  02:25      0.0013       0.305      -0.004
  YS02001751           JUNCTION      0.01   221.96     0  02:25    0.000317       0.305       0.291
  YS02001754           JUNCTION      0.26   252.42     0  02:30     0.00749       0.312      -0.320
  YS02001757           JUNCTION      0.00  2744.65     0  02:28           0         5.3       0.090
  YS02001759           JUNCTION    303.18   661.55     0  02:28       0.413        1.08      -0.007
  YS02001762           JUNCTION      0.00   417.43     0  02:29           0       0.663       0.021
  YS02001765           JUNCTION      0.00   405.96     0  02:28           0       0.663       0.021
  YS02001767           JUNCTION      0.54   410.28     0  02:29      0.0154       0.664       0.025
  YS02001770           JUNCTION    423.48   423.48     0  02:26       0.649        0.68       0.013
  YS02001774           JUNCTION      0.00    94.42     0  02:26           0      0.0452       2.630
  YS02001779           JUNCTION      0.01    44.55     0  02:27    0.000144      0.0136       0.095
  YS02001783           JUNCTION      0.00  1049.24     0  02:29           0        2.06       0.008
  YS02001784           JUNCTION      1.06  1050.35     0  02:29      0.0305        2.09       0.019
  YS02001786           JUNCTION      0.06  1050.38     0  02:29     0.00162        2.09       0.031
  YS02001788           JUNCTION      0.07  1049.52     0  02:30     0.00204        2.09       0.015
  YS02001790           JUNCTION      0.15  1054.27     0  02:29     0.00446        2.09       0.045
  YS02001791           JUNCTION      0.00  1126.08     0  02:30           0        2.09      -0.018
  YS02001793           JUNCTION      0.00  1074.55     0  02:30           0        2.09       0.010
  YS02001882           JUNCTION      0.00    41.39     0  02:24           0      0.0123       3.044
  YS02001884           JUNCTION      0.00    82.53     0  02:24           0      0.0481       4.899
  YS02001887           JUNCTION    344.15   344.15     0  02:25       0.452       0.486       0.888
  YS02001890           JUNCTION      0.00   339.22     0  02:26           0       0.445       1.125
  YS02001895           JUNCTION      0.00   339.39     0  02:26           0        0.44       0.252
  YS02001898           JUNCTION      0.00   333.68     0  02:27           0       0.439       0.076
  YS02001901           JUNCTION      0.00   318.14     0  02:27           0       0.442       0.656
  YS02001904           JUNCTION      0.00   317.26     0  02:27           0       0.446       0.570
  YS02001907           JUNCTION      0.00   724.65     0  02:31           0        1.46       1.236
  YS02001910           JUNCTION      0.00   541.68     0  02:31           0        1.02       0.693
  YS02001915           JUNCTION    364.70   538.45     0  02:31       0.614        1.02       0.108
  YS02001918           JUNCTION      0.00   246.79     0  02:32           0       0.411       0.080
  YS02001920           JUNCTION      2.87   221.48     0  02:31      0.0827       0.408       0.269
  YS02001923           JUNCTION      0.04   177.84     0  02:31     0.00109       0.325      -0.067
  YS02001926           JUNCTION      0.05   171.37     0  02:26      0.0015       0.325       0.192
  YS02001929           JUNCTION    171.48   171.48     0  02:26       0.323       0.323      -0.004
  YS02006553           JUNCTION      0.00   724.87     0  02:31           0        1.45       0.812
  YS02006556           JUNCTION      0.00   725.02     0  02:31           0        1.45       0.556
  YS02006558           JUNCTION    431.98  1050.39     0  02:29       0.652        2.08       0.160
  YS02006561           JUNCTION      0.00  1050.65     0  02:29           0        2.06       0.008
  YS02163301           JUNCTION      0.00   950.19     0  02:28           0        2.28       0.071
  YS02163601           JUNCTION      0.11  1265.49     0  02:26     0.00317        2.91       0.170
  YS02164001           JUNCTION      0.00  1265.54     0  02:26           0        2.91       0.086
  CC-1                 OUTFALL       0.00   683.00     0  00:05           0        2.25       0.000
  CC-2                 OUTFALL       0.00   683.00     0  00:05           0        1.95       0.000
  JK-1                 OUTFALL       0.00  1000.00     0  00:10           0       0.748       0.000
  JK-2                 OUTFALL       0.00  1000.00     0  02:10           0       0.514       0.000
  WSC                  OUTFALL       0.00   556.28     0  02:59           0        3.47       0.000
  CC-storage           STORAGE       0.00  2594.93     0  02:28           0        7.53      -0.327
  JK-storage           STORAGE       0.00  1073.46     0  02:30           0        2.24      -0.768
  
  
  **********************
  Node Surcharge Summary
  **********************
  
  Surcharging occurs when water rises above the top of the highest conduit.
  ---------------------------------------------------------------------
                                               Max. Height   Min. Depth
                                   Hours       Above Crown    Below Rim
  Node                 Type      Surcharged         Meters       Meters
  ---------------------------------------------------------------------
  WS02004404           JUNCTION        0.01          0.016        2.764
  WS02006109           JUNCTION        0.86          0.296        1.524
  WS02006110           JUNCTION        0.31          0.200        1.650
  WS02006111           JUNCTION        0.01          0.087        1.783
  WS02006112           JUNCTION        0.35          1.680        0.000
  WS02006113           JUNCTION        0.01          0.600        1.330
  WS02006115           JUNCTION        0.01          0.642        1.608
  WS02006116           JUNCTION        0.01          0.000        2.290
  WS02006228           JUNCTION        0.86          0.298        1.902
  WS02006229           JUNCTION        0.86          0.364        2.086
  WS02006230           JUNCTION        0.31          0.243        1.327
  WS02006231           JUNCTION        0.33          0.326        1.204
  WS02006232           JUNCTION        0.92          0.885        0.595
  WS02006234           JUNCTION        0.57          0.969        0.271
  WS02006235           JUNCTION        0.87          1.029        0.261
  WS02006238           JUNCTION        0.88          1.050        0.380
  WS02006239           JUNCTION        0.86          0.979        0.311
  WS02006240           JUNCTION        0.77          0.894        0.496
  WS02006242           JUNCTION        0.91          0.820        0.000
  WS02006243           JUNCTION        0.69          0.618        0.152
  WS02006245           JUNCTION        0.67          0.506        0.344
  WS02006247           JUNCTION        0.67          0.504        0.256
  WS02006248           JUNCTION        0.67          0.380        0.000
  WS02006249           JUNCTION        0.67          0.390        0.000
  WS02006251           JUNCTION        0.33          0.502        0.678
  WS02006252           JUNCTION        1.12          1.100        0.000
  WS02006256           JUNCTION        6.47          2.050        0.000
  YS02001580           JUNCTION        0.06          0.450        0.000
  YS02001583           JUNCTION        0.07          0.500        0.000
  YS02001586           JUNCTION        0.22          0.510        0.000
  YS02001590           JUNCTION        0.27          0.750        0.000
  YS02001593           JUNCTION        0.28          0.710        0.130
  YS02001596           JUNCTION        0.36          0.959        0.111
  YS02001600           JUNCTION        0.46          1.190        0.000
  YS02001601           JUNCTION        0.73          1.440        0.000
  YS02001602           JUNCTION        0.64          1.270        0.000
  YS02001605           JUNCTION        0.59          1.180        0.000
  YS02001607           JUNCTION        0.23          0.680        0.000
  YS02001610           JUNCTION        0.24          0.680        0.000
  YS02001613           JUNCTION        0.22          0.700        0.000
  YS02001616           JUNCTION        0.18          0.610        0.000
  YS02001619           JUNCTION        0.17          0.610        0.000
  YS02001622           JUNCTION        0.16          0.620        0.000
  YS02001625           JUNCTION        0.31          0.780        0.000
  YS02001629           JUNCTION        0.10          0.470        0.000
  YS02001633           JUNCTION        0.32          0.930        0.130
  YS02001641           JUNCTION        0.24          0.528        0.572
  YS02001644           JUNCTION        0.20          0.358        0.562
  YS02001783           JUNCTION        0.16          0.207        1.393
  YS02001784           JUNCTION        0.14          0.127        1.363
  YS02001882           JUNCTION        0.10          0.479        0.351
  YS02001884           JUNCTION        0.12          0.461        0.409
  YS02001887           JUNCTION        0.16          0.950        0.000
  YS02001890           JUNCTION        0.17          0.760        0.000
  YS02001895           JUNCTION        0.09          0.237        0.513
  YS02001898           JUNCTION        0.08          0.207        0.533
  YS02001901           JUNCTION        0.14          0.334        0.536
  YS02001904           JUNCTION        0.13          0.337        0.513
  YS02001907           JUNCTION        0.33          0.950        0.000
  YS02001910           JUNCTION        0.19          0.756        0.344
  YS02001915           JUNCTION        0.11          0.249        0.751
  YS02006553           JUNCTION        0.34          1.190        0.000
  YS02006556           JUNCTION        0.26          1.270        0.080
  YS02006558           JUNCTION        0.25          0.591        0.809
  YS02163301           JUNCTION        0.31          0.996        0.034
  YS02163601           JUNCTION        0.34          0.813        0.267
  YS02164001           JUNCTION        0.25          0.637        0.463
  
  
  *********************
  Node Flooding Summary
  *********************
  
  Flooding refers to all water that overflows a node, whether it ponds or not.
  --------------------------------------------------------------------------
                                                             Total   Maximum
                                 Maximum   Time of Max       Flood    Ponded
                        Hours       Rate    Occurrence      Volume     Depth
  Node                 Flooded       LPS   days hr:min    10^6 ltr    Meters
  --------------------------------------------------------------------------
  WS02006112              0.01   1547.89      0  00:00       0.047     0.000
  WS02006242              0.01     89.40      0  02:25       0.000     0.000
  WS02006248              0.01     24.73      0  02:35       0.000     0.000
  WS02006249              0.33    121.54      0  02:35       0.083     0.000
  WS02006252              0.01      0.91      0  03:20       0.000     0.000
  WS02006256              0.89    294.52      0  00:10       0.270     0.000
  YS02001580              0.01    101.24      0  02:25       0.000     0.000
  YS02001583              0.01    166.54      0  02:25       0.000     0.000
  YS02001586              0.01     88.33      0  02:25       0.001     0.000
  YS02001590              0.01      4.49      0  02:25       0.000     0.000
  YS02001600              0.01      1.70      0  02:28       0.000     0.000
  YS02001601              0.17    322.75      0  02:25       0.106     0.000
  YS02001602              0.01     22.43      0  02:25       0.000     0.000
  YS02001605              0.01      4.99      0  02:24       0.000     0.000
  YS02001607              0.01      6.64      0  02:25       0.000     0.000
  YS02001610              0.01     31.62      0  02:25       0.000     0.000
  YS02001613              0.01      8.17      0  02:25       0.000     0.000
  YS02001616              0.01     18.32      0  02:25       0.000     0.000
  YS02001619              0.01     20.60      0  02:25       0.000     0.000
  YS02001622              0.01    219.24      0  02:24       0.000     0.000
  YS02001625              0.01     55.76      0  02:25       0.000     0.000
  YS02001629              0.01    123.80      0  02:25       0.000     0.000
  YS02001887              0.01      0.81      0  02:28       0.000     0.000
  YS02001890              0.01      0.68      0  02:28       0.000     0.000
  YS02001907              0.01      0.59      0  02:28       0.000     0.000
  YS02006553              0.01      0.01      0  02:28       0.000     0.000
  
  
  **********************
  Storage Volume Summary
  **********************
  
  ------------------------------------------------------------------------------------------------
                         Average    Avg   Evap  Exfil     Maximum    Max    Time of Max    Maximum
                          Volume   Pcnt   Pcnt   Pcnt      Volume   Pcnt     Occurrence    Outflow
  Storage Unit           1000 m³   Full   Loss   Loss     1000 m³   Full    days hr:min        LPS
  ------------------------------------------------------------------------------------------------
  CC-storage               1.862   29.0    0.0    0.0       3.414   53.3       0  02:48    1766.00
  JK-storage               0.075   25.8    0.0    0.0       0.211   72.5       0  02:32    2300.00
  
  
  ***********************
  Outfall Loading Summary
  ***********************
  
  -----------------------------------------------------------
                         Flow       Avg       Max       Total
                         Freq      Flow      Flow      Volume
  Outfall Node           Pcnt       LPS       LPS    10^6 ltr
  -----------------------------------------------------------
  CC-1                  24.32    683.00    683.00       2.246
  CC-2                  20.54    683.00    683.00       1.951
  JK-1                   5.45   1000.00   1000.00       0.748
  JK-2                   5.57   1000.00   1000.00       0.514
  WSC                   99.99    178.50    556.28       3.469
  -----------------------------------------------------------
  System                31.17   3544.50   2431.05       8.927
  
  
  ********************
  Link Flow Summary
  ********************
  
  -----------------------------------------------------------------------------
                                 Maximum  Time of Max   Maximum    Max/    Max/
                                  |Flow|   Occurrence   |Veloc|    Full    Full
  Link                 Type          LPS  days hr:min     m/sec    Flow   Depth
  -----------------------------------------------------------------------------
  1                    CONDUIT    556.28     0  02:59      2.83    0.19    0.30
  WS02003060WS02003069 CONDUIT    554.57     0  02:57      1.64    0.22    0.34
  WS02003066WSF200     CONDUIT    538.02     0  02:56      2.85    0.09    0.22
  WS02003067WS02003066 CONDUIT    537.97     0  02:56      1.21    0.17    0.42
  WS02003069WS02003072 CONDUIT    554.66     0  02:57      1.37    0.27    0.39
  WS02003072WS02003073 CONDUIT    554.56     0  02:58      1.44    1.20    0.37
  WS02004401WS02004402 CONDUIT   1171.33     0  00:01      2.51    1.41    0.89
  WS02004402WS02004403 CONDUIT    884.75     0  00:01      2.16    1.27    0.91
  WS02004403WS02004404 CONDUIT    832.43     0  00:01      1.96    0.60    0.96
  WS02004404WS02004405 CONDUIT    776.45     0  00:01      2.26    7.61    0.98
  WS02004405WS02004406 CONDUIT    711.76     0  00:02      2.15    1.40    0.96
  WS02004406WS02004407 CONDUIT    539.94     0  02:54      1.04    0.24    0.63
  WS02004407WS02004409 CONDUIT    539.15     0  02:54      1.95    0.19    0.48
  WS02004409WS02004410 CONDUIT    538.62     0  02:54      1.31    0.70    0.68
  WS02004410WS02004411 CONDUIT    538.52     0  02:55      1.19    0.74    0.69
  WS02004411WS02004412 CONDUIT    538.12     0  02:55      1.09    0.76    0.69
  WS02004412WS02004413 CONDUIT    538.18     0  02:55      1.11    0.36    0.78
  WS02004413WS02003067 CONDUIT    537.91     0  02:55      1.11    0.23    0.59
  WS02006109WS02006110 CONDUIT   1306.78     0  00:00      3.14    2.51    1.00
  WS02006110WS02006113 CONDUIT    565.14     0  02:36      1.36    0.51    1.00
  WS02006111WS02006112 CONDUIT   2307.30     0  00:00      9.18    1.10    0.91
  WS02006112WS02006115 CONDUIT    899.27     0  00:00      1.16    0.53    1.00
  WS02006113WS02006111 CONDUIT   1176.04     0  00:00      2.47    1.41    1.00
  WS02006115WS02006116 CONDUIT   1098.16     0  00:01      1.72    1.41    1.00
  WS02006116WS02004401 CONDUIT   1677.78     0  00:00      2.92    2.31    0.86
  WS02006228WS02006109 CONDUIT    548.85     0  02:36      1.40    2.40    1.00
  WS02006229WS02006228 CONDUIT    549.11     0  02:36      1.24    1.82    1.00
  WS02006230WS02006229 CONDUIT    548.46     0  02:36      1.43   12.21    1.00
  WS02006231WS02006230 CONDUIT    532.82     0  02:36      1.51    8.08    1.00
  WS02006232WS02006231 CONDUIT    539.07     0  03:15      1.43    1.13    1.00
  WS02006234WS02006232 CONDUIT    538.25     0  03:15      1.40    1.09    1.00
  WS02006235WS02006234 CONDUIT    537.82     0  03:15      1.44    5.67    1.00
  WS02006238WS02006235 CONDUIT    422.11     0  02:55      1.37    0.94    1.00
  WS02006239WS02006238 CONDUIT    420.88     0  02:55      1.09    1.35    1.00
  WS02006240WS02006239 CONDUIT    421.22     0  02:55      1.19    1.33    1.00
  WS02006242WS02006240 CONDUIT    419.20     0  02:55      1.12    1.66    1.00
  WS02006243WS02006242 CONDUIT    419.38     0  02:55      1.28    0.90    1.00
  WS02006245WS02006243 CONDUIT    418.92     0  02:55      1.33    1.24    1.00
  WS02006247WS02006245 CONDUIT    418.57     0  02:55      1.38    3.32    1.00
  WS02006248WS02006247 CONDUIT    418.16     0  02:55      1.46    0.91    1.00
  WS02006249WS02006248 CONDUIT    417.40     0  02:55      1.40    2.29    1.00
  WS02006251WS02006249 CONDUIT    473.96     0  03:40      1.97    1.37    1.00
  WS02006252WS02006251 CONDUIT    411.36     0  02:35     25.67    1.51    1.00
  WS02006256WS02006235 CONDUIT    287.22     0  05:15      4.18    3.04    1.00
  WSF200WS02003060     CONDUIT    538.31     0  02:56      2.06    0.12    0.28
  YS02001580YS02001583 CONDUIT    124.75     0  02:24      0.78    0.48    1.00
  YS02001583YS02001586 CONDUIT    174.55     0  02:24      0.75    0.26    1.00
  YS02001586YS02001590 CONDUIT    258.97     0  02:25      1.27    0.45    1.00
  YS02001590YS02001593 CONDUIT    259.05     0  02:25      1.02    1.63    1.00
  YS02001593YS02001596 CONDUIT    259.07     0  02:25      1.67    0.41    1.00
  YS02001596YS02001600 CONDUIT    259.03     0  02:25      1.17    0.50    1.00
  YS02001600YS02001601 CONDUIT    259.00     0  02:25      0.92    0.45    1.00
  YS02001601YS02001602 CONDUIT    539.65     0  02:24      1.91    1.95    1.00
  YS02001602YS02001605 CONDUIT    540.10     0  02:24      1.91   11.43    1.00
  YS02001605YS02001607 CONDUIT    540.65     0  02:24      1.91    2.96    1.00
  YS02001607YS02001610 CONDUIT    536.43     0  02:24      0.68    0.51    1.00
  YS02001610YS02001613 CONDUIT    542.72     0  02:24      0.69    0.63    1.00
  YS02001613YS02001616 CONDUIT    549.21     0  02:24      0.70    0.47    1.00
  YS02001616YS02001619 CONDUIT    519.68     0  02:24      0.70    0.90    1.00
  YS02001619YS02001622 CONDUIT    938.00     0  02:24      1.22    1.38    1.00
  YS02001622YS02001625 CONDUIT    946.89     0  02:24      1.21    0.51    1.00
  YS02001625YS02001629 CONDUIT    947.04     0  02:24      1.21    0.45    1.00
  YS02001629YS02163301 CONDUIT    950.19     0  02:28      1.21    1.17    1.00
  YS02001633YS02163601 CONDUIT   1265.38     0  02:26      1.61    1.33    1.00
  YS02001641YS02001644 CONDUIT   1266.36     0  02:25      1.61    4.09    1.00
  YS02001644YS02001647 CONDUIT   1599.15     0  02:25      2.17    0.94    0.92
  YS02001647YS02001649 CONDUIT   1614.01     0  02:27      2.34    0.85    0.88
  YS02001649YS02001757 CONDUIT   1922.38     0  02:26      2.53    1.17    0.95
  YS02001652YS02001649 CONDUIT    387.75     0  02:26      0.68    0.19    0.84
  YS02001655YS02001652 CONDUIT    382.43     0  02:26      1.35    0.19    0.58
  YS02001658YS02001655 CONDUIT    334.14     0  02:26      1.97    0.14    0.36
  YS02001661YS02001658 CONDUIT    324.50     0  02:25      2.15    0.13    0.25
  YS02001664YS02001661 CONDUIT    323.15     0  02:25      1.96    0.10    0.26
  YS02001745YS02001748 CONDUIT    221.25     0  02:25      2.02    0.09    0.20
  YS02001748YS02001751 CONDUIT    221.95     0  02:25      1.70    0.11    0.26
  YS02001751YS02001754 CONDUIT    252.16     0  02:30      1.51    0.12    0.42
  YS02001754YS02001757 CONDUIT    323.73     0  02:28      0.53    0.13    0.77
  YS02001757CaochengTiaoxuchi CONDUIT   2594.93     0  02:28      3.65    1.12    0.91
  YS02001759YS02001757 CONDUIT    650.69     0  02:29      0.90    0.46    0.90
  YS02001762YS02001759 CONDUIT    430.61     0  02:29      0.68    0.50    0.83
  YS02001765YS02001762 CONDUIT    417.43     0  02:29      0.71    0.39    0.79
  YS02001767YS02001765 CONDUIT    405.96     0  02:28      0.80    0.51    0.76
  YS02001770YS02001767 CONDUIT    409.74     0  02:29      0.80    1.62    0.75
  YS02001774YS02001770 CONDUIT     94.42     0  02:26      0.16    0.06    0.78
  YS02001779YS02001774 CONDUIT     54.70     0  02:30      0.10    0.03    0.71
  YS02001783YS02001784 CONDUIT   1049.29     0  02:29      2.09    1.45    1.00
  YS02001784YS02001785 CONDUIT   1050.32     0  02:29      2.11    2.44    0.97
  YS02001786YS02001788 CONDUIT   1049.45     0  02:30      2.38    2.02    0.83
  YS02001788YS02001790 CONDUIT   1054.12     0  02:29      2.60    0.78    0.77
  YS02001790YS02001791 CONDUIT   1126.08     0  02:30      3.25    1.23    0.65
  YS02001791YS02001793 CONDUIT   1074.55     0  02:30      6.48    0.46    0.37
  YS02001793JiankangQianchi CONDUIT   1073.46     0  02:30      2.19    0.09    0.60
  YS02001882YS02001884 CONDUIT     41.39     0  02:24      0.06    0.05    1.00
  YS02001884YS02001887 CONDUIT     82.53     0  02:24      0.11    0.11    1.00
  YS02001887YS02001890 CONDUIT    339.22     0  02:26      0.43    0.58    1.00
  YS02001890YS02001895 CONDUIT    339.39     0  02:26      0.43    0.16    1.00
  YS02001895YS02001898 CONDUIT    333.68     0  02:27      0.42    0.58    1.00
  YS02001898YS02001901 CONDUIT    318.14     0  02:27      0.41    0.21    1.00
  YS02001901YS02001904 CONDUIT    317.26     0  02:27      0.40    0.49    1.00
  YS02001904YS02001907 CONDUIT    319.70     0  02:27      0.41    0.11    1.00
  YS02001907YS02006553 CONDUIT    724.87     0  02:31      0.81    0.85    1.00
  YS02001910YS02001907 CONDUIT    541.81     0  02:31      0.69    0.31    1.00
  YS02001915YS02001910 CONDUIT    541.68     0  02:31      0.69    0.27    1.00
  YS02001918YS02001915 CONDUIT    272.66     0  02:32      0.46    0.15    0.93
  YS02001920YS02001918 CONDUIT    246.79     0  02:32      0.64    0.24    0.88
  YS02001923YS02001920 CONDUIT    218.61     0  02:31      0.71    0.10    0.78
  YS02001926YS02001923 CONDUIT    177.80     0  02:31      0.94    0.25    0.46
  YS02001929YS02001926 CONDUIT    171.32     0  02:26      1.04    0.08    0.33
  YS02006553YS02006556 CONDUIT    725.02     0  02:31      0.92    0.62    1.00
  YS02006556YS02006558 CONDUIT    725.29     0  02:31      0.92    0.57    1.00
  YS02006558YS02006561 CONDUIT   1050.65     0  02:29      3.75    2.32    0.99
  YS02006561YS02001783 CONDUIT   1049.24     0  02:29      2.27    0.54    0.87
  YS02163301YS02001633 CONDUIT    948.76     0  02:28      1.21    0.89    1.00
  YS02163601YS02164001 CONDUIT   1265.54     0  02:26      1.61    1.12    1.00
  YS02164001YS02001641 CONDUIT   1265.64     0  02:25      1.61    1.73    1.00
  CC-R1                PUMP       683.00     0  00:05              1.00
  CC-R2                PUMP       683.00     0  00:05              1.00
  CC-S1                PUMP       200.00     0  00:05              1.00
  CC-S2                PUMP       200.00     0  01:35              1.00
  JK-R1                PUMP      1000.00     0  00:10              1.00
  JK-R2                PUMP      1000.00     0  02:10              1.00
  JK-S                 PUMP       300.00     0  00:10              1.00
  
  
  ***************************
  Flow Classification Summary
  ***************************
  
  -------------------------------------------------------------------------------------
                      Adjusted    ---------- Fraction of Time in Flow Class ---------- 
                       /Actual         Up    Down  Sub   Sup   Up    Down  Norm  Inlet 
  Conduit               Length    Dry  Dry   Dry   Crit  Crit  Crit  Crit  Ltd   Ctrl  
  -------------------------------------------------------------------------------------
  1                       1.00   0.00  0.00  0.00  0.00  1.00  0.00  0.00  0.35  0.00
  WS02003060WS02003069    1.00   0.00  0.00  0.00  0.97  0.03  0.00  0.00  0.80  0.00
  WS02003066WSF200        1.00   0.03  0.00  0.00  0.00  0.97  0.00  0.00  0.91  0.00
  WS02003067WS02003066    1.00   0.02  0.01  0.00  0.97  0.00  0.00  0.00  0.00  0.00
  WS02003069WS02003072    1.00   0.00  0.00  0.00  0.99  0.01  0.00  0.00  0.86  0.00
  WS02003072WS02003073    1.00   0.00  0.00  0.00  0.00  0.00  0.00  1.00  0.00  0.00
  WS02004401WS02004402    1.00   0.00  0.00  0.00  1.00  0.00  0.00  0.00  0.00  0.00
  WS02004402WS02004403    1.00   0.00  0.00  0.00  1.00  0.00  0.00  0.00  0.00  0.00
  WS02004403WS02004404    1.00   0.00  0.00  0.00  1.00  0.00  0.00  0.00  0.00  0.00
  WS02004404WS02004405    1.00   0.00  0.00  0.00  1.00  0.00  0.00  0.00  0.01  0.00
  WS02004405WS02004406    1.00   0.00  0.00  0.00  1.00  0.00  0.00  0.00  0.00  0.00
  WS02004406WS02004407    1.00   0.00  0.00  0.00  1.00  0.00  0.00  0.00  0.00  0.00
  WS02004407WS02004409    1.00   0.00  0.00  0.00  0.99  0.00  0.00  0.00  0.99  0.00
  WS02004409WS02004410    1.00   0.00  0.00  0.00  0.99  0.00  0.00  0.00  0.00  0.00
  WS02004410WS02004411    1.00   0.01  0.00  0.00  0.99  0.00  0.00  0.00  0.00  0.00
  WS02004411WS02004412    1.00   0.01  0.00  0.00  0.99  0.00  0.00  0.00  0.00  0.00
  WS02004412WS02004413    1.00   0.01  0.00  0.00  0.99  0.00  0.00  0.00  0.00  0.00
  WS02004413WS02003067    1.00   0.01  0.01  0.00  0.00  0.00  0.98  0.00  0.00  0.00
  WS02006109WS02006110    1.00   0.00  0.00  0.00  1.00  0.00  0.00  0.00  0.00  0.00
  WS02006110WS02006113    1.00   0.00  0.00  0.00  1.00  0.00  0.00  0.00  0.00  0.00
  WS02006111WS02006112    1.00   0.00  0.00  0.00  1.00  0.00  0.00  0.00  1.00  0.00
  WS02006112WS02006115    1.00   0.00  0.00  0.00  1.00  0.00  0.00  0.00  0.00  0.00
  WS02006113WS02006111    1.00   0.00  0.00  0.00  0.01  0.99  0.00  0.00  0.09  0.00
  WS02006115WS02006116    1.00   0.00  0.00  0.00  1.00  0.00  0.00  0.00  0.00  0.00
  WS02006116WS02004401    1.00   0.00  0.00  0.00  1.00  0.00  0.00  0.00  0.00  0.00
  WS02006228WS02006109    1.00   0.00  0.00  0.00  1.00  0.00  0.00  0.00  0.00  0.00
  WS02006229WS02006228    1.00   0.00  0.00  0.00  1.00  0.00  0.00  0.00  0.00  0.00
  WS02006230WS02006229    1.00   0.00  0.00  0.00  1.00  0.00  0.00  0.00  0.04  0.00
  WS02006231WS02006230    1.00   0.00  0.00  0.00  0.15  0.00  0.85  0.00  0.00  0.00
  WS02006232WS02006231    1.00   0.00  0.00  0.00  0.99  0.00  0.01  0.00  0.00  0.00
  WS02006234WS02006232    1.00   0.00  0.00  0.00  0.99  0.00  0.00  0.00  0.09  0.00
  WS02006235WS02006234    1.00   0.02  0.00  0.00  0.83  0.00  0.15  0.00  0.00  0.00
  WS02006238WS02006235    1.00   0.01  0.00  0.00  0.99  0.00  0.00  0.00  0.01  0.00
  WS02006239WS02006238    1.00   0.02  0.00  0.00  0.98  0.00  0.00  0.00  0.17  0.00
  WS02006240WS02006239    1.00   0.02  0.00  0.00  0.61  0.00  0.00  0.37  0.06  0.00
  WS02006242WS02006240    1.00   0.01  0.00  0.00  0.97  0.00  0.01  0.00  0.00  0.00
  WS02006243WS02006242    1.00   0.01  0.00  0.00  0.98  0.00  0.00  0.01  0.71  0.00
  WS02006245WS02006243    1.00   0.01  0.00  0.00  0.69  0.00  0.00  0.29  0.01  0.00
  WS02006247WS02006245    1.00   0.01  0.00  0.00  0.94  0.00  0.00  0.05  0.00  0.00
  WS02006248WS02006247    1.00   0.01  0.00  0.00  0.97  0.00  0.00  0.02  0.58  0.00
  WS02006249WS02006248    1.00   0.00  0.01  0.00  0.31  0.00  0.68  0.00  0.00  0.00
  WS02006251WS02006249    1.00   0.00  0.00  0.00  0.99  0.01  0.00  0.00  0.68  0.00
  WS02006252WS02006251    1.00   0.03  0.63  0.00  0.04  0.00  0.30  0.00  0.00  0.00
  WS02006256WS02006235    1.00   0.01  0.00  0.00  0.96  0.03  0.00  0.00  0.01  0.00
  WSF200WS02003060        1.00   0.00  0.03  0.00  0.53  0.45  0.00  0.00  0.78  0.00
  YS02001580YS02001583    1.00   0.30  0.57  0.00  0.13  0.00  0.00  0.00  0.67  0.00
  YS02001583YS02001586    1.00   0.45  0.38  0.00  0.18  0.00  0.00  0.00  0.67  0.00
  YS02001586YS02001590    1.00   0.13  0.00  0.00  0.35  0.05  0.00  0.47  0.36  0.00
  YS02001590YS02001593    1.00   0.13  0.01  0.00  0.05  0.00  0.81  0.00  0.00  0.00
  YS02001593YS02001596    1.00   0.14  0.00  0.00  0.06  0.01  0.00  0.79  0.01  0.00
  YS02001596YS02001600    1.00   0.14  0.00  0.00  0.11  0.01  0.00  0.73  0.05  0.00
  YS02001600YS02001601    1.00   0.13  0.01  0.00  0.85  0.00  0.00  0.00  0.67  0.00
  YS02001601YS02001602    1.00   0.13  0.02  0.00  0.86  0.00  0.00  0.00  0.00  0.00
  YS02001602YS02001605    1.00   0.14  0.00  0.00  0.85  0.00  0.00  0.00  0.00  0.00
  YS02001605YS02001607    1.00   0.15  0.00  0.00  0.85  0.00  0.00  0.00  0.00  0.00
  YS02001607YS02001610    1.00   0.14  0.01  0.00  0.85  0.00  0.00  0.00  0.03  0.00
  YS02001610YS02001613    1.00   0.13  0.00  0.00  0.87  0.00  0.00  0.00  0.02  0.00
  YS02001613YS02001616    1.00   0.13  0.00  0.00  0.87  0.00  0.00  0.00  0.01  0.00
  YS02001616YS02001619    1.00   0.13  0.00  0.00  0.87  0.00  0.00  0.00  0.00  0.00
  YS02001619YS02001622    1.00   0.13  0.00  0.00  0.87  0.00  0.00  0.00  0.30  0.00
  YS02001622YS02001625    1.00   0.13  0.00  0.00  0.87  0.00  0.00  0.00  0.08  0.00
  YS02001625YS02001629    1.00   0.13  0.08  0.00  0.08  0.00  0.71  0.00  0.00  0.00
  YS02001629YS02163301    1.00   0.18  0.02  0.00  0.80  0.00  0.00  0.00  0.00  0.00
  YS02001633YS02163601    1.00   0.00  0.01  0.00  0.99  0.00  0.00  0.00  0.16  0.00
  YS02001641YS02001644    1.00   0.00  0.01  0.00  0.99  0.00  0.00  0.00  0.00  0.00
  YS02001644YS02001647    1.00   0.00  0.22  0.00  0.78  0.00  0.00  0.00  0.00  0.00
  YS02001647YS02001649    1.00   0.00  0.22  0.00  0.45  0.33  0.00  0.00  0.59  0.00
  YS02001649YS02001757    1.00   0.00  0.00  0.00  0.64  0.35  0.00  0.00  0.54  0.00
  YS02001652YS02001649    1.00   0.00  0.00  0.00  0.96  0.04  0.00  0.00  0.85  0.00
  YS02001655YS02001652    1.00   0.00  0.00  0.00  0.09  0.01  0.00  0.90  0.06  0.00
  YS02001658YS02001655    1.00   0.00  0.15  0.00  0.57  0.28  0.00  0.00  0.80  0.00
  YS02001661YS02001658    1.00   0.15  0.00  0.00  0.41  0.43  0.00  0.00  0.76  0.00
  YS02001664YS02001661    1.00   0.13  0.00  0.00  0.80  0.08  0.00  0.00  0.87  0.00
  YS02001745YS02001748    1.00   0.00  0.00  0.00  0.00  0.00  0.00  1.00  0.00  0.00
  YS02001748YS02001751    1.00   0.00  0.00  0.00  0.78  0.22  0.00  0.00  0.86  0.00
  YS02001751YS02001754    1.00   0.00  0.00  0.00  0.05  0.01  0.00  0.94  0.04  0.00
  YS02001754YS02001757    1.00   0.00  0.00  0.00  1.00  0.00  0.00  0.00  0.93  0.00
  YS02001757CaochengTiaoxuchi    1.00   0.00  0.00  0.00  0.96  0.04  0.00  0.00  0.89  0.00
  YS02001759YS02001757    1.00   0.00  0.00  0.00  1.00  0.00  0.00  0.00  0.72  0.00
  YS02001762YS02001759    1.00   0.00  0.00  0.00  1.00  0.00  0.00  0.00  0.08  0.00
  YS02001765YS02001762    1.00   0.00  0.00  0.00  1.00  0.00  0.00  0.00  0.82  0.00
  YS02001767YS02001765    1.00   0.00  0.00  0.00  1.00  0.00  0.00  0.00  0.00  0.00
  YS02001770YS02001767    1.00   0.00  0.00  0.00  1.00  0.00  0.00  0.00  0.00  0.00
  YS02001774YS02001770    1.00   0.00  0.14  0.00  0.68  0.00  0.18  0.00  0.06  0.00
  YS02001779YS02001774    1.00   0.00  0.00  0.00  1.00  0.00  0.00  0.00  0.87  0.00
  YS02001783YS02001784    1.00   0.00  0.23  0.00  0.77  0.00  0.00  0.00  0.57  0.00
  YS02001784YS02001785    1.00   0.00  0.00  0.00  1.00  0.00  0.00  0.00  0.21  0.00
  YS02001786YS02001788    1.00   0.00  0.00  0.00  0.81  0.19  0.00  0.00  0.00  0.00
  YS02001788YS02001790    1.00   0.00  0.00  0.00  0.24  0.76  0.00  0.00  0.88  0.00
  YS02001790YS02001791    1.00   0.00  0.00  0.00  0.01  0.99  0.00  0.00  0.13  0.00
  YS02001791YS02001793    1.00   0.00  0.00  0.00  0.00  1.00  0.00  0.00  0.00  0.00
  YS02001793JiankangQianchi    1.00   0.00  0.00  0.00  1.00  0.00  0.00  0.00  1.00  0.00
  YS02001882YS02001884    1.00   0.17  0.02  0.00  0.81  0.00  0.00  0.00  0.00  0.00
  YS02001884YS02001887    1.00   0.06  0.05  0.00  0.89  0.00  0.00  0.00  0.00  0.00
  YS02001887YS02001890    1.00   0.00  0.00  0.00  0.97  0.00  0.03  0.00  0.00  0.00
  YS02001890YS02001895    1.00   0.00  0.20  0.00  0.80  0.00  0.00  0.00  0.00  0.00
  YS02001895YS02001898    1.00   0.20  0.01  0.00  0.77  0.00  0.02  0.00  0.00  0.00
  YS02001898YS02001901    1.00   0.20  0.02  0.00  0.79  0.00  0.00  0.00  0.01  0.00
  YS02001901YS02001904    1.00   0.19  0.00  0.00  0.81  0.00  0.00  0.00  0.00  0.00
  YS02001904YS02001907    1.00   0.00  0.19  0.00  0.81  0.00  0.00  0.00  0.00  0.00
  YS02001907YS02006553    1.00   0.00  0.02  0.00  0.98  0.00  0.00  0.00  0.00  0.00
  YS02001910YS02001907    1.00   0.00  0.00  0.00  0.97  0.00  0.00  0.03  0.13  0.00
  YS02001915YS02001910    1.00   0.00  0.00  0.00  0.97  0.03  0.00  0.00  0.21  0.00
  YS02001918YS02001915    1.00   0.00  0.00  0.00  0.98  0.02  0.00  0.00  0.81  0.00
  YS02001920YS02001918    1.00   0.00  0.00  0.00  1.00  0.00  0.00  0.00  0.01  0.00
  YS02001923YS02001920    1.00   0.00  0.00  0.00  1.00  0.00  0.00  0.00  0.97  0.00
  YS02001926YS02001923    1.00   0.00  0.07  0.00  0.01  0.00  0.91  0.00  0.00  0.00
  YS02001929YS02001926    1.00   0.00  0.13  0.00  0.87  0.00  0.00  0.00  0.87  0.00
  YS02006553YS02006556    1.00   0.01  0.00  0.00  0.99  0.00  0.00  0.00  0.03  0.00
  YS02006556YS02006558    1.00   0.00  0.00  0.00  1.00  0.00  0.00  0.00  0.00  0.00
  YS02006558YS02006561    1.00   0.22  0.00  0.00  0.00  0.77  0.00  0.00  0.19  0.00
  YS02006561YS02001783    1.00   0.22  0.00  0.00  0.04  0.74  0.00  0.00  0.71  0.00
  YS02163301YS02001633    1.00   0.00  0.18  0.00  0.82  0.00  0.00  0.00  0.00  0.00
  YS02163601YS02164001    1.00   0.00  0.08  0.00  0.92  0.00  0.00  0.00  0.00  0.00
  YS02164001YS02001641    1.00   0.01  0.07  0.00  0.92  0.00  0.00  0.00  0.06  0.00
  
  
  *************************
  Conduit Surcharge Summary
  *************************
  
  ----------------------------------------------------------------------------
                                                           Hours        Hours 
                         --------- Hours Full --------   Above Full   Capacity
  Conduit                Both Ends  Upstream  Dnstream   Normal Flow   Limited
  ----------------------------------------------------------------------------
  WS02003072WS02003073        0.01      0.01      0.01      0.39         0.01
  WS02004401WS02004402        0.01      0.01      0.01      0.01         0.01
  WS02004402WS02004403        0.01      0.01      0.01      0.01         0.01
  WS02004403WS02004404        0.01      0.01      0.01      0.01         0.01
  WS02004404WS02004405        0.01      0.01      0.01      1.87         0.01
  WS02004405WS02004406        0.01      0.01      0.01      0.29         0.01
  WS02006109WS02006110        0.30      0.31      0.90      0.33         0.01
  WS02006110WS02006113        0.01      0.01      0.88      0.01         0.01
  WS02006111WS02006112        0.01      0.01      1.32      0.01         0.01
  WS02006112WS02006115        0.01      0.01      0.35      0.01         0.01
  WS02006113WS02006111        0.01      0.01      0.01      0.01         0.01
  WS02006115WS02006116        0.01      0.01      0.01      0.01         0.01
  WS02006116WS02004401        0.01      0.01      0.01      0.01         0.01
  WS02006228WS02006109        0.86      0.90      0.86      1.47         0.86
  WS02006229WS02006228        0.86      0.86      0.86      1.25         0.85
  WS02006230WS02006229        1.05      1.21      1.05      2.51         1.05
  WS02006231WS02006230        0.31      0.31      0.34      2.01         0.01
  WS02006232WS02006231        0.33      0.33      0.92      0.35         0.01
  WS02006234WS02006232        0.86      0.87      0.92      0.34         0.35
  WS02006235WS02006234        0.56      0.57      0.87      1.88         0.01
  WS02006238WS02006235        0.87      0.87      0.93      0.01         0.01
  WS02006239WS02006238        0.87      0.90      0.88      0.90         0.66
  WS02006240WS02006239        0.82      0.83      0.86      0.87         0.65
  WS02006242WS02006240        0.77      0.77      1.00      1.10         0.01
  WS02006243WS02006242        0.69      0.69      0.91      0.01         0.01
  WS02006245WS02006243        0.68      0.68      0.69      0.58         0.37
  WS02006247WS02006245        0.67      0.69      0.67      1.51         0.67
  WS02006248WS02006247        0.67      0.67      0.67      0.01         0.01
  WS02006249WS02006248        0.67      0.67      0.67      1.45         0.01
  WS02006251WS02006249        0.67      0.67      0.67      1.00         0.65
  WS02006252WS02006251        1.08      1.09      1.11      1.09         0.01
  WS02006256WS02006235        1.91      1.97      6.34      0.96         0.01
  YS02001580YS02001583        0.06      0.06      0.11      0.01         0.01
  YS02001583YS02001586        0.07      0.07      0.22      0.01         0.01
  YS02001586YS02001590        0.22      0.22      0.27      0.01         0.01
  YS02001590YS02001593        0.28      0.28      0.29      0.28         0.01
  YS02001593YS02001596        0.28      0.28      0.36      0.01         0.01
  YS02001596YS02001600        0.39      0.39      0.46      0.01         0.01
  YS02001600YS02001601        0.50      0.50      0.73      0.01         0.01
  YS02001601YS02001602        0.64      0.64      0.77      0.47         0.01
  YS02001602YS02001605        0.59      0.59      0.64      1.60         0.01
  YS02001605YS02001607        0.56      0.59      0.56      0.70         0.56
  YS02001607YS02001610        0.22      0.22      0.24      0.01         0.01
  YS02001610YS02001613        0.22      0.22      0.24      0.01         0.01
  YS02001613YS02001616        0.18      0.18      0.22      0.01         0.01
  YS02001616YS02001619        0.17      0.17      0.18      0.01         0.01
  YS02001619YS02001622        0.16      0.17      0.16      0.30         0.16
  YS02001622YS02001625        0.16      0.16      0.31      0.01         0.01
  YS02001625YS02001629        0.10      0.10      0.31      0.01         0.01
  YS02001629YS02163301        0.30      0.30      0.31      0.21         0.19
  YS02001633YS02163601        0.32      0.32      0.34      0.23         0.23
  YS02001641YS02001644        0.20      0.24      0.20      0.82         0.20
  YS02001644YS02001647        0.01      0.01      0.20      0.01         0.01
  YS02001649YS02001757        0.01      0.01      0.01      0.11         0.01
  YS02001757CaochengTiaoxuchi        0.01      0.01      0.57      0.12         0.01
  YS02001770YS02001767        0.01      0.01      0.01      0.22         0.01
  YS02001783YS02001784        0.14      0.16      0.14      0.28         0.14
  YS02001784YS02001785        0.01      0.14      0.01      0.43         0.01
  YS02001786YS02001788        0.01      0.01      0.01      0.35         0.01
  YS02001790YS02001791        0.01      0.01      0.01      0.12         0.01
  YS02001793JiankangQianchi        0.01      0.01      6.07      0.01         0.01
  YS02001882YS02001884        0.10      0.10      0.12      0.01         0.01
  YS02001884YS02001887        0.15      0.15      0.16      0.01         0.01
  YS02001887YS02001890        0.17      0.17      0.18      0.01         0.01
  YS02001890YS02001895        0.09      0.09      0.19      0.01         0.01
  YS02001895YS02001898        0.08      0.08      0.09      0.01         0.01
  YS02001898YS02001901        0.10      0.10      0.14      0.01         0.01
  YS02001901YS02001904        0.13      0.13      0.14      0.01         0.01
  YS02001904YS02001907        0.13      0.13      0.34      0.01         0.01
  YS02001907YS02006553        0.44      0.44      0.48      0.01         0.01
  YS02001910YS02001907        0.19      0.19      0.33      0.01         0.01
  YS02001915YS02001910        0.11      0.11      0.19      0.01         0.01
  YS02001918YS02001915        0.01      0.01      0.11      0.01         0.01
  YS02006553YS02006556        0.26      0.26      0.34      0.01         0.01
  YS02006556YS02006558        0.30      0.30      0.35      0.01         0.01
  YS02006558YS02006561        0.01      0.25      0.01      0.40         0.01
  YS02006561YS02001783        0.01      0.01      0.16      0.01         0.01
  YS02163301YS02001633        0.31      0.31      0.34      0.01         0.01
  YS02163601YS02164001        0.26      0.26      0.34      0.13         0.01
  YS02164001YS02001641        0.24      0.26      0.24      0.38         0.24
  
  
  ***************
  Pumping Summary
  ***************
  
  ---------------------------------------------------------------------------------------------------------
                                                  Min       Avg       Max     Total     Power    % Time Off
                        Percent   Number of      Flow      Flow      Flow    Volume     Usage    Pump Curve
  Pump                 Utilized   Start-Ups       LPS       LPS       LPS  10^6 ltr     Kw-hr    Low   High
  ---------------------------------------------------------------------------------------------------------
  CC-R1                   11.59          34      0.00    683.00    683.00     2.279     39.51    0.0   61.3
  CC-R2                   10.01          22      0.00    683.00    683.00     1.969     33.63    0.0   81.3
  CC-S1                   20.48          30      0.00    200.00    200.00     1.179      7.67    0.0    0.0
  CC-S2                   13.79          23      0.00    200.00    200.00     0.794      5.20    0.0    0.0
  JK-R1                    2.60          11      0.00   1000.00   1000.00     0.749      6.50    0.0    0.0
  JK-R2                    1.79           9      0.00   1000.00   1000.00     0.515      4.61    0.0    0.0
  JK-S                    11.16          44      0.00    300.00    300.00     0.964     17.54    0.0    0.0
  

  Analysis begun on:  Fri Aug  4 09:51:04 2023
  Analysis ended on:  Fri Aug  4 09:51:09 2023
  Total elapsed time: 00:00:05