
  OWA STORM WATER MANAGEMENT MODEL - VERSION v5.1.14 (OWA 2022-07-31)
  --------------------------------------------------------------

  WARNING 04: minimum elevation drop used for Conduit WS02004404WS02004405
  WARNING 03: negative offset ignored for Link YS02001904YS02001907
  
  *********************************************************
  NOTE: The summary statistics displayed in this report are
  based on results found at every computational time step,  
  not just on results from each reporting time step.
  *********************************************************
  
  ****************
  Analysis Options
  ****************
  Flow Units ............... LPS
  Process Models:
    Rainfall/Runoff ........ YES
    RDII ................... NO
    Snowmelt ............... NO
    Groundwater ............ NO
    Flow Routing ........... YES
    Ponding Allowed ........ NO
    Water Quality .......... NO
  Infiltration Method ...... HORTON
  Flow Routing Method ...... DYNWAVE
  Surcharge Method ......... EXTRAN
  Starting Date ............ 08/28/2015 08:00:00
  Ending Date .............. 08/28/2015 16:00:00
  Antecedent Dry Days ...... 8.0
  Report Time Step ......... 00:01:00
  Wet Time Step ............ 00:01:00
  Dry Time Step ............ 00:01:00
  Routing Time Step ........ 30.00 sec
  Variable Time Step ....... YES
  Maximum Trials ........... 8
  Number of Threads ........ 1
  Head Tolerance ........... 0.001500 m
  
  
  **************************        Volume         Depth
  Runoff Quantity Continuity     hectare-m            mm
  **************************     ---------       -------
  Total Precipitation ......         2.992        90.205
  Evaporation Loss .........         0.000         0.000
  Infiltration Loss ........         0.105         3.155
  Surface Runoff ...........         2.855        86.068
  Final Storage ............         0.033         0.997
  Continuity Error (%) .....        -0.017
  
  
  **************************        Volume        Volume
  Flow Routing Continuity        hectare-m      10^6 ltr
  **************************     ---------     ---------
  Dry Weather Inflow .......         0.000         0.000
  Wet Weather Inflow .......         2.856        28.556
  Groundwater Inflow .......         0.000         0.000
  RDII Inflow ..............         0.000         0.000
  External Inflow ..........         0.083         0.834
  External Outflow .........         2.373        23.726
  Flooding Loss ............         0.663         6.628
  Evaporation Loss .........         0.000         0.000
  Exfiltration Loss ........         0.000         0.000
  Initial Stored Volume ....         0.243         2.431
  Final Stored Volume ......         0.181         1.810
  Continuity Error (%) .....        -1.078
  
  
  *************************
  Highest Continuity Errors
  *************************
  Node YS02001583 (-4.01%)
  Node YS02001884 (3.62%)
  
  
  ***************************
  Time-Step Critical Elements
  ***************************
  Link WS02006252WS02006251 (73.66%)
  Link YS02001791YS02001793 (7.46%)
  Link WS02006235WS02006234 (5.01%)
  Link WS02004404WS02004405 (4.22%)
  Link YS02006556YS02006558 (2.43%)
  
  
  ********************************
  Highest Flow Instability Indexes
  ********************************
  Link WS02006113WS02006111 (59)
  Link WS02006111WS02006112 (33)
  Link WS02004404WS02004405 (17)
  Link WS02004403WS02004404 (15)
  Link WS02006256WS02006235 (15)
  
  
  *************************
  Routing Time Step Summary
  *************************
  Minimum Time Step           :     0.01 sec
  Average Time Step           :     1.18 sec
  Maximum Time Step           :    30.00 sec
  Percent in Steady State     :    -0.00
  Average Iterations per Step :     3.05
  Percent Not Converging      :    14.11
  
  
  ***************************
  Subcatchment Runoff Summary
  ***************************
  
  ------------------------------------------------------------------------------------------------------------------------------
                            Total      Total      Total      Total     Imperv       Perv      Total       Total     Peak  Runoff
                           Precip      Runon       Evap      Infil     Runoff     Runoff     Runoff      Runoff   Runoff   Coeff
  Subcatchment                 mm         mm         mm         mm         mm         mm         mm    10^6 ltr      LPS
  ------------------------------------------------------------------------------------------------------------------------------
  sub60                     90.21       0.00       0.00       1.91      78.18       8.91      87.10        1.14   272.68   0.966
  sub61                     90.21       0.00       0.00       2.77      73.74      12.56      86.31        1.58   378.59   0.957
  sub62                     90.21       0.00       0.00       1.27      81.70       5.94      87.65        2.40   567.68   0.972
  sub63                     90.21       0.00       0.00       5.10      63.08      21.06      84.14        1.91   451.60   0.933
  sub64                     90.21       0.00       0.00       2.58      75.47      10.95      86.42        2.08   488.38   0.958
  sub65                     90.21       0.00       0.00       2.23      77.22       9.49      86.72        2.39   559.01   0.961
  sub66                     90.21       0.00       0.00       6.21      62.97      19.95      82.91        3.87   826.99   0.919
  sub67                     90.21       0.00       0.00       1.22      81.75       6.00      87.75        1.63   388.00   0.973
  sub68                     90.21       0.00       0.00       2.30      76.39      10.33      86.73        2.39   567.83   0.961
  sub69                     90.21       0.00       0.00       2.07      76.56      11.46      88.02        3.26   750.47   0.976
  sub70                     90.21       0.00       0.00       6.72      59.37      23.95      83.32        2.41   484.55   0.924
  sub71                     90.21       0.00       0.00       1.31      81.66       5.91      87.57        2.29   535.92   0.971
  sub72                     90.21       0.00       0.00       1.16      82.48       5.15      87.64        1.20   276.73   0.972
  
  
  ******************
  Node Depth Summary
  ******************
  
  ---------------------------------------------------------------------------------
                                 Average  Maximum  Maximum  Time of Max    Reported
                                   Depth    Depth      HGL   Occurrence   Max Depth
  Node                 Type       Meters   Meters   Meters  days hr:min      Meters
  ---------------------------------------------------------------------------------
  WS02003060           JUNCTION     0.25     0.38     5.31     0  02:38        0.38
  WS02003066           JUNCTION     0.21     0.29     5.85     0  02:28        0.29
  WS02003067           JUNCTION     0.53     0.69     6.01     0  02:28        0.69
  WS02003069           JUNCTION     0.28     0.42     5.00     0  02:39        0.42
  WS02003072           JUNCTION     0.34     0.49     4.86     0  02:30        0.49
  WS02003073           JUNCTION     0.19     0.29     4.36     0  02:31        0.29
  WS02004401           JUNCTION     0.63     0.86     6.86     0  02:25        0.86
  WS02004402           JUNCTION     0.66     0.89     6.85     0  02:25        0.89
  WS02004403           JUNCTION     0.69     0.91     6.84     0  02:26        0.91
  WS02004404           JUNCTION     0.76     0.99     6.84     0  02:16        0.98
  WS02004405           JUNCTION     0.75     0.96     6.81     0  02:36        0.96
  WS02004406           JUNCTION     0.76     0.95     6.78     0  02:36        0.95
  WS02004407           JUNCTION     0.19     0.29     6.61     0  02:36        0.29
  WS02004409           JUNCTION     0.42     0.65     6.42     0  02:27        0.65
  WS02004410           JUNCTION     0.45     0.66     6.38     0  02:27        0.66
  WS02004411           JUNCTION     0.47     0.68     6.36     0  02:27        0.67
  WS02004412           JUNCTION     0.49     0.68     6.32     0  02:28        0.68
  WS02004413           JUNCTION     0.65     0.84     6.31     0  02:28        0.84
  WS02006109           JUNCTION     0.67     1.24     7.85     0  00:00        1.16
  WS02006110           JUNCTION     0.68     1.45     8.04     0  00:00        1.20
  WS02006111           JUNCTION     0.19     1.67     8.37     0  00:00        0.56
  WS02006112           JUNCTION     0.78     2.68     8.56     0  00:00        1.29
  WS02006113           JUNCTION     0.29     1.50     8.40     0  00:00        0.46
  WS02006115           JUNCTION     0.51     1.69     7.83     0  00:00        0.86
  WS02006116           JUNCTION     0.59     1.11     7.15     0  00:00        0.84
  WS02006228           JUNCTION     0.65     1.64     8.29     0  00:00        1.11
  WS02006229           JUNCTION     0.62     1.31     8.00     0  00:00        1.09
  WS02006230           JUNCTION     0.61     1.44     8.18     0  02:10        1.14
  WS02006231           JUNCTION     0.43     1.15     8.27     0  02:10        0.88
  WS02006232           JUNCTION     0.56     1.68     8.72     0  02:20        1.68
  WS02006234           JUNCTION     0.47     1.96     9.12     0  02:20        1.96
  WS02006235           JUNCTION     0.51     2.00     9.16     0  02:20        2.00
  WS02006238           JUNCTION     0.54     2.15     9.29     0  02:20        2.15
  WS02006239           JUNCTION     0.51     2.03     9.24     0  02:20        2.03
  WS02006240           JUNCTION     0.47     1.82     9.11     0  02:20        1.82
  WS02006242           JUNCTION     0.56     1.55     8.82     0  01:21        1.55
  WS02006243           JUNCTION     0.45     1.42     8.84     0  02:20        1.42
  WS02006245           JUNCTION     0.46     1.28     8.77     0  02:20        1.20
  WS02006247           JUNCTION     0.49     1.24     8.74     0  02:20        1.23
  WS02006248           JUNCTION     0.45     1.10     8.69     0  01:22        1.08
  WS02006249           JUNCTION     0.49     1.09     8.69     0  01:22        1.09
  WS02006251           JUNCTION     0.48     1.38     9.05     0  01:23        1.12
  WS02006252           JUNCTION     0.38     1.50     9.74     0  01:19        0.69
  WS02006256           JUNCTION     0.80     2.35     9.28     0  01:15        2.35
  WSF200               JUNCTION     0.18     0.28     5.52     0  02:38        0.28
  YS02001580           JUNCTION     0.11     1.05     9.59     0  01:13        0.77
  YS02001583           JUNCTION     0.14     1.14     9.64     0  01:13        0.85
  YS02001586           JUNCTION     0.20     1.13     9.30     0  01:13        1.13
  YS02001590           JUNCTION     0.28     1.40     9.26     0  01:10        1.40
  YS02001593           JUNCTION     0.23     1.33     9.19     0  01:13        1.29
  YS02001596           JUNCTION     0.31     1.68     9.10     0  01:44        1.68
  YS02001600           JUNCTION     0.36     1.87     9.00     0  01:13        1.86
  YS02001601           JUNCTION     0.51     2.06     8.90     0  01:10        2.06
  YS02001602           JUNCTION     0.43     1.87     8.77     0  01:13        1.87
  YS02001605           JUNCTION     0.40     1.78     8.68     0  01:13        1.78
  YS02001607           JUNCTION     0.40     1.68     8.53     0  01:13        1.66
  YS02001610           JUNCTION     0.43     1.68     8.48     0  01:13        1.68
  YS02001613           JUNCTION     0.40     1.70     8.54     0  01:13        1.70
  YS02001616           JUNCTION     0.34     1.61     8.52     0  01:13        1.58
  YS02001619           JUNCTION     0.32     1.61     8.54     0  01:13        1.57
  YS02001622           JUNCTION     0.32     1.62     8.52     0  01:13        1.59
  YS02001625           JUNCTION     0.54     1.78     8.38     0  01:13        1.78
  YS02001629           JUNCTION     0.41     1.85     8.40     0  01:13        1.85
  YS02001633           JUNCTION     0.48     2.06     8.51     0  01:44        2.06
  YS02001641           JUNCTION     0.47     2.10     8.54     0  01:44        2.10
  YS02001644           JUNCTION     0.46     1.92     8.35     0  01:30        1.92
  YS02001647           JUNCTION     0.29     1.90     8.51     0  02:17        1.90
  YS02001649           JUNCTION     0.33     2.05     8.44     0  02:12        2.05
  YS02001652           JUNCTION     0.25     2.00     8.59     0  02:17        2.00
  YS02001655           JUNCTION     0.20     1.76     8.61     0  02:35        1.49
  YS02001658           JUNCTION     0.14     1.34     8.48     0  01:24        1.07
  YS02001661           JUNCTION     0.15     0.81     8.21     0  01:34        0.81
  YS02001664           JUNCTION     0.05     0.25     8.18     0  01:33        0.25
  YS02001745           JUNCTION     0.07     0.63     8.15     0  01:32        0.63
  YS02001748           JUNCTION     0.14     1.07     8.15     0  01:33        1.07
  YS02001751           JUNCTION     0.17     1.44     8.32     0  02:15        1.27
  YS02001754           JUNCTION     0.22     1.90     8.51     0  02:12        1.90
  YS02001757           JUNCTION     0.35     2.21     8.47     0  02:12        2.21
  YS02001759           JUNCTION     0.30     2.21     8.57     0  02:17        2.21
  YS02001762           JUNCTION     0.29     2.15     8.55     0  02:17        2.15
  YS02001765           JUNCTION     0.28     2.10     8.55     0  02:17        2.10
  YS02001767           JUNCTION     0.27     2.03     8.52     0  01:44        2.03
  YS02001770           JUNCTION     0.28     1.95     8.44     0  01:44        1.95
  YS02001774           JUNCTION     0.34     2.05     8.47     0  01:44        2.05
  YS02001779           JUNCTION     0.21     1.68     8.37     0  01:17        1.68
  YS02001783           JUNCTION     0.20     1.41     7.55     0  01:17        1.22
  YS02001784           JUNCTION     0.20     1.20     7.27     0  01:17        1.10
  YS02001786           JUNCTION     0.17     0.95     6.98     0  01:17        0.86
  YS02001788           JUNCTION     0.12     0.62     6.60     0  01:29        0.62
  YS02001790           JUNCTION     0.14     0.72     6.37     0  01:29        0.72
  YS02001791           JUNCTION     0.09     0.44     5.91     0  01:29        0.43
  YS02001793           JUNCTION     0.04     0.28     5.12     0  01:22        0.28
  YS02001882           JUNCTION     0.27     1.83     8.55     0  01:15        1.64
  YS02001884           JUNCTION     0.34     1.92     8.54     0  01:15        1.73
  YS02001887           JUNCTION     0.41     1.93     8.47     0  01:15        1.80
  YS02001890           JUNCTION     0.43     1.81     8.32     0  01:15        1.81
  YS02001895           JUNCTION     0.24     1.62     8.37     0  01:44        1.62
  YS02001898           JUNCTION     0.25     1.58     8.32     0  01:44        1.58
  YS02001901           JUNCTION     0.34     1.68     8.29     0  01:16        1.66
  YS02001904           JUNCTION     0.33     1.64     8.27     0  01:16        1.63
  YS02001907           JUNCTION     0.59     1.96     8.25     0  01:16        1.96
  YS02001910           JUNCTION     0.43     2.00     8.51     0  01:16        1.82
  YS02001915           JUNCTION     0.26     1.94     8.66     0  01:16        1.62
  YS02001918           JUNCTION     0.15     1.81     8.88     0  01:16        1.30
  YS02001920           JUNCTION     0.20     2.14     9.15     0  01:17        1.44
  YS02001923           JUNCTION     0.12     2.03     9.29     0  01:17        1.37
  YS02001926           JUNCTION     0.14     1.90     9.35     0  01:17        1.24
  YS02001929           JUNCTION     0.08     1.78     9.47     0  01:17        1.03
  YS02006553           JUNCTION     0.60     2.02     8.30     0  01:17        1.97
  YS02006556           JUNCTION     0.57     2.04     8.35     0  01:17        1.95
  YS02006558           JUNCTION     0.61     2.09     8.35     0  01:17        1.96
  YS02006561           JUNCTION     0.13     1.17     7.83     0  01:17        0.87
  YS02163301           JUNCTION     0.43     1.93     8.44     0  01:44        1.93
  YS02163601           JUNCTION     0.51     2.08     8.48     0  01:44        2.08
  YS02164001           JUNCTION     0.45     2.10     8.56     0  01:44        2.10
  CC-1                 OUTFALL      0.00     0.00     0.00     0  00:00        0.00
  CC-2                 OUTFALL      0.00     0.00     0.00     0  00:00        0.00
  JK-1                 OUTFALL      0.00     0.00     0.00     0  00:00        0.00
  JK-2                 OUTFALL      0.00     0.00     0.00     0  00:00        0.00
  WSC                  OUTFALL      0.19     0.29     0.96     0  02:31        0.29
  CC-storage           STORAGE      0.89     1.94     7.44     0  02:26        1.94
  JK-storage           STORAGE      1.46     4.21     5.01     0  01:20        4.21
  
  
  *******************
  Node Inflow Summary
  *******************
  
  -------------------------------------------------------------------------------------------------
                                  Maximum  Maximum                  Lateral       Total        Flow
                                  Lateral    Total  Time of Max      Inflow      Inflow     Balance
                                   Inflow   Inflow   Occurrence      Volume      Volume       Error
  Node                 Type           LPS      LPS  days hr:min    10^6 ltr    10^6 ltr     Percent
  -------------------------------------------------------------------------------------------------
  WS02003060           JUNCTION     16.53   530.60     0  02:38       0.476        7.51       0.031
  WS02003066           JUNCTION      0.00   513.24     0  02:28           0        7.03       0.018
  WS02003067           JUNCTION      0.00   512.95     0  02:28           0        7.04       0.058
  WS02003069           JUNCTION      0.32   531.22     0  02:39     0.00922        7.51       0.050
  WS02003072           JUNCTION      0.00   529.48     0  02:29           0        7.51       0.088
  WS02003073           JUNCTION      1.82   530.11     0  02:30      0.0524        7.56       0.071
  WS02004401           JUNCTION      0.00  1786.04     0  00:00           0        7.14       0.151
  WS02004402           JUNCTION      0.00  1248.69     0  00:01           0        7.13       0.152
  WS02004403           JUNCTION      0.00   929.44     0  00:01           0        7.12       0.149
  WS02004404           JUNCTION      0.00   877.02     0  00:01           0        7.11       0.188
  WS02004405           JUNCTION      0.00   827.31     0  00:01           0         7.1       0.082
  WS02004406           JUNCTION      0.00   768.45     0  00:02           0        7.09       0.301
  WS02004407           JUNCTION      0.00   525.50     0  02:36           0        7.07       0.014
  WS02004409           JUNCTION      0.00   525.08     0  02:36           0        7.07       0.036
  WS02004410           JUNCTION      0.00   520.55     0  02:37           0        7.07       0.060
  WS02004411           JUNCTION      0.00   518.29     0  02:37           0        7.06       0.078
  WS02004412           JUNCTION      0.00   516.64     0  02:37           0        7.06       0.102
  WS02004413           JUNCTION      0.00   514.34     0  02:28           0        7.05       0.188
  WS02006109           JUNCTION      0.00  1446.81     0  00:00           0        7.04      -0.055
  WS02006110           JUNCTION      0.00   559.06     0  02:10           0        7.02      -0.776
  WS02006111           JUNCTION      0.00  1180.41     0  00:00           0        7.07      -0.604
  WS02006112           JUNCTION      0.00  2307.30     0  00:00           0        7.11       0.001
  WS02006113           JUNCTION      0.00   567.86     0  02:11           0        7.03      -0.541
  WS02006115           JUNCTION      0.00   953.54     0  00:00           0        7.08      -0.505
  WS02006116           JUNCTION      0.00  1264.47     0  00:00           0        7.12      -0.329
  WS02006228           JUNCTION      0.00   869.18     0  00:00           0        7.03       0.002
  WS02006229           JUNCTION      0.00   558.26     0  02:10           0        7.01      -0.045
  WS02006230           JUNCTION     10.28   706.67     0  00:00       0.296           7       0.022
  WS02006231           JUNCTION      0.00   611.21     0  02:20           0        6.69       0.006
  WS02006232           JUNCTION      0.00   607.05     0  02:20           0        6.69       0.058
  WS02006234           JUNCTION      0.00   592.91     0  02:20           0        6.68      -0.014
  WS02006235           JUNCTION      0.00   571.93     0  02:20           0        6.68       0.021
  WS02006238           JUNCTION      0.00   425.41     0  03:05           0        6.35      -0.006
  WS02006239           JUNCTION      0.00   423.99     0  03:05           0        6.34      -0.035
  WS02006240           JUNCTION      0.00   420.07     0  03:05           0        6.34       0.002
  WS02006242           JUNCTION      0.00   419.81     0  01:25           0        6.35       0.032
  WS02006243           JUNCTION      0.00   419.18     0  02:15           0        6.35      -0.002
  WS02006245           JUNCTION      0.00   419.41     0  03:05           0        6.35       0.055
  WS02006247           JUNCTION      0.00   419.67     0  02:15           0        6.35       0.012
  WS02006248           JUNCTION      0.00   419.72     0  02:15           0        6.35       0.009
  WS02006249           JUNCTION      0.00   426.33     0  01:23           0        6.43       0.055
  WS02006251           JUNCTION      0.00   407.09     0  01:23           0        6.43       0.010
  WS02006252           JUNCTION      0.00   400.00     0  01:19           0        6.42      -0.139
  WS02006256           JUNCTION      0.00   300.00     0  01:15           0       0.492      -0.396
  WSF200               JUNCTION      0.00   513.42     0  02:28           0        7.03       0.007
  YS02001580           JUNCTION      0.00   143.19     0  01:13           0      0.0053      -0.885
  YS02001583           JUNCTION      0.00   170.12     0  01:12           0      0.0167      -3.859
  YS02001586           JUNCTION    484.55   484.72     0  01:36        2.41        2.42       0.071
  YS02001590           JUNCTION      0.00   318.05     0  01:44           0        2.07      -0.031
  YS02001593           JUNCTION      0.00   318.18     0  01:40           0        2.07       0.000
  YS02001596           JUNCTION      0.00   318.06     0  01:33           0        2.07      -0.024
  YS02001600           JUNCTION      0.00   318.27     0  01:40           0        2.08       0.018
  YS02001601           JUNCTION    750.47  1068.06     0  01:33        3.26        5.33       0.004
  YS02001602           JUNCTION      0.00   581.56     0  01:12           0        3.23       0.009
  YS02001605           JUNCTION      0.00   581.60     0  01:12           0        2.95       0.012
  YS02001607           JUNCTION      0.00   581.53     0  01:12           0        2.95       0.058
  YS02001610           JUNCTION      0.00   556.21     0  01:12           0        2.95       0.074
  YS02001613           JUNCTION      0.00   560.49     0  01:13           0        2.17       0.061
  YS02001616           JUNCTION      0.00   577.35     0  01:13           0        2.18       0.019
  YS02001619           JUNCTION    826.99   953.56     0  01:13        3.87        6.04      -0.009
  YS02001622           JUNCTION      0.00   976.54     0  01:13           0        6.03      -0.009
  YS02001625           JUNCTION      0.00   931.81     0  01:13           0        6.03       0.196
  YS02001629           JUNCTION      0.00   931.75     0  01:13           0        4.19      -0.028
  YS02001633           JUNCTION    559.01  1341.66     0  01:16        2.39        6.59       0.045
  YS02001641           JUNCTION      0.00  1340.97     0  01:16           0        6.59       0.042
  YS02001644           JUNCTION    488.38  1737.48     0  01:16        2.08        8.65       0.036
  YS02001647           JUNCTION      0.00  1737.44     0  01:16           0        8.63      -0.004
  YS02001649           JUNCTION      0.00  2054.60     0  01:15           0        10.6      -0.003
  YS02001652           JUNCTION      0.00   470.89     0  01:32           0        1.92      -0.143
  YS02001655           JUNCTION      0.00   542.71     0  01:18           0        1.92      -0.058
  YS02001658           JUNCTION      0.00   633.36     0  01:24           0        1.94      -0.346
  YS02001661           JUNCTION      0.00   451.60     0  01:33           0        1.94       0.042
  YS02001664           JUNCTION    451.60   451.60     0  01:33        1.91        1.91      -0.009
  YS02001745           JUNCTION    272.68   272.68     0  01:31        1.14        1.18       0.194
  YS02001748           JUNCTION      0.00   470.66     0  01:31           0        1.18      -0.557
  YS02001751           JUNCTION      0.00   478.20     0  01:20           0        1.15      -0.199
  YS02001754           JUNCTION      0.00   299.54     0  01:26           0        1.15      -0.148
  YS02001757           JUNCTION      0.00  2971.86     0  01:19           0        15.7       0.032
  YS02001759           JUNCTION    378.59   969.35     0  01:32        1.58        3.99      -0.026
  YS02001762           JUNCTION      0.00   587.82     0  01:32           0        2.41      -0.030
  YS02001765           JUNCTION      0.00   584.42     0  01:32           0         2.4      -0.011
  YS02001767           JUNCTION      0.00   581.74     0  01:32           0         2.4      -0.012
  YS02001770           JUNCTION    567.68   575.08     0  01:32         2.4        2.46      -0.042
  YS02001774           JUNCTION      0.00   156.80     0  01:17           0      0.0809       0.923
  YS02001779           JUNCTION      0.00   162.31     0  01:17           0      0.0258      -1.426
  YS02001783           JUNCTION      0.00  1149.27     0  01:28           0        6.42      -0.000
  YS02001784           JUNCTION      0.00  1149.15     0  01:28           0        6.42      -0.000
  YS02001786           JUNCTION      0.00  1148.90     0  01:28           0        6.42       0.004
  YS02001788           JUNCTION      0.00  1148.75     0  01:28           0        6.42       0.001
  YS02001790           JUNCTION      0.00  1161.03     0  01:27           0        6.42       0.013
  YS02001791           JUNCTION      0.00  1277.44     0  01:27           0        6.42      -0.034
  YS02001793           JUNCTION      0.00  1229.76     0  01:41           0        6.42       0.004
  YS02001882           JUNCTION      0.00    92.50     0  01:14           0      0.0153       3.000
  YS02001884           JUNCTION      0.00   166.12     0  01:11           0      0.0527       3.758
  YS02001887           JUNCTION    388.00   389.01     0  01:31        1.63        1.67       0.263
  YS02001890           JUNCTION      0.00   389.33     0  01:29           0        1.63       0.246
  YS02001895           JUNCTION      0.00   389.17     0  01:31           0        1.62       0.179
  YS02001898           JUNCTION      0.00   389.18     0  01:30           0        1.62      -0.087
  YS02001901           JUNCTION      0.00   399.28     0  01:15           0        1.62       0.174
  YS02001904           JUNCTION      0.00   400.57     0  01:15           0        1.64       0.130
  YS02001907           JUNCTION      0.00  1272.92     0  01:18           0        5.14       0.317
  YS02001910           JUNCTION      0.00   890.45     0  01:18           0        3.49       0.188
  YS02001915           JUNCTION    535.92   890.51     0  01:18        2.29        3.53       0.019
  YS02001918           JUNCTION      0.00   427.99     0  01:18           0        1.26       0.001
  YS02001920           JUNCTION      0.00   427.55     0  01:18           0        1.24       0.040
  YS02001923           JUNCTION      0.00   416.13     0  01:16           0        1.23      -0.028
  YS02001926           JUNCTION      0.00   458.49     0  01:17           0        1.21       0.023
  YS02001929           JUNCTION    276.73   276.73     0  01:34        1.21        1.21      -0.013
  YS02006553           JUNCTION      0.00   783.33     0  02:01           0        4.11       0.274
  YS02006556           JUNCTION      0.00   783.42     0  02:00           0        4.13       0.165
  YS02006558           JUNCTION    567.83  1153.31     0  01:17        2.39        6.48       0.055
  YS02006561           JUNCTION      0.00  1153.34     0  01:17           0        6.42      -0.008
  YS02163301           JUNCTION      0.00   908.34     0  01:16           0         4.2       0.036
  YS02163601           JUNCTION      0.00  1341.49     0  01:16           0        6.57       0.077
  YS02164001           JUNCTION      0.00  1341.79     0  01:16           0        6.58       0.032
  CC-1                 OUTFALL       0.00   683.00     0  01:23           0        5.38       0.000
  CC-2                 OUTFALL       0.00   683.00     0  01:28           0        4.76       0.000
  JK-1                 OUTFALL       0.00  1000.00     0  00:05           0        3.32       0.000
  JK-2                 OUTFALL       0.00  1000.00     0  00:05           0        2.72       0.000
  WSC                  OUTFALL       0.00   528.35     0  02:31           0        7.55       0.000
  CC-storage           STORAGE       0.00  2973.25     0  01:19           0        17.9      -0.180
  JK-storage           STORAGE       0.00  1265.81     0  01:35           0        6.57      -0.239
  
  
  **********************
  Node Surcharge Summary
  **********************
  
  Surcharging occurs when water rises above the top of the highest conduit.
  ---------------------------------------------------------------------
                                               Max. Height   Min. Depth
                                   Hours       Above Crown    Below Rim
  Node                 Type      Surcharged         Meters       Meters
  ---------------------------------------------------------------------
  WS02006109           JUNCTION        2.75          0.416        1.404
  WS02006110           JUNCTION        0.23          0.544        1.306
  WS02006111           JUNCTION        0.01          0.856        1.014
  WS02006112           JUNCTION        0.29          1.680        0.000
  WS02006113           JUNCTION        0.01          0.705        1.225
  WS02006115           JUNCTION        0.01          0.682        1.568
  WS02006116           JUNCTION        0.01          0.053        2.237
  WS02006228           JUNCTION        2.73          0.810        1.390
  WS02006229           JUNCTION        2.75          0.510        1.940
  WS02006230           JUNCTION        0.23          0.360        1.210
  WS02006231           JUNCTION        0.31          0.441        1.089
  WS02006232           JUNCTION        2.77          0.981        0.499
  WS02006234           JUNCTION        0.46          1.240        0.000
  WS02006235           JUNCTION        2.71          1.290        0.000
  WS02006238           JUNCTION        2.74          1.430        0.000
  WS02006239           JUNCTION        2.72          1.290        0.000
  WS02006240           JUNCTION        2.73          1.112        0.278
  WS02006242           JUNCTION        2.74          0.820        0.000
  WS02006243           JUNCTION        2.72          0.708        0.062
  WS02006245           JUNCTION        2.72          0.573        0.277
  WS02006247           JUNCTION        2.72          0.528        0.232
  WS02006248           JUNCTION        2.71          0.380        0.000
  WS02006249           JUNCTION        2.71          0.390        0.000
  WS02006251           JUNCTION        0.34          0.347        0.833
  WS02006252           JUNCTION        2.79          1.100        0.000
  WS02006256           JUNCTION        7.85          2.050        0.000
  YS02001580           JUNCTION        1.26          0.450        0.000
  YS02001583           JUNCTION        1.27          0.500        0.000
  YS02001586           JUNCTION        1.59          0.510        0.000
  YS02001590           JUNCTION        1.79          0.750        0.000
  YS02001593           JUNCTION        1.80          0.706        0.134
  YS02001596           JUNCTION        1.90          0.952        0.118
  YS02001600           JUNCTION        1.97          1.190        0.000
  YS02001601           JUNCTION        2.14          1.440        0.000
  YS02001602           JUNCTION        2.09          1.270        0.000
  YS02001605           JUNCTION        2.07          1.180        0.000
  YS02001607           JUNCTION        1.81          0.680        0.000
  YS02001610           JUNCTION        1.83          0.680        0.000
  YS02001613           JUNCTION        1.81          0.700        0.000
  YS02001616           JUNCTION        1.77          0.610        0.000
  YS02001619           JUNCTION        1.75          0.610        0.000
  YS02001622           JUNCTION        1.75          0.620        0.000
  YS02001625           JUNCTION        1.89          0.780        0.000
  YS02001629           JUNCTION        1.64          0.470        0.000
  YS02001633           JUNCTION        1.92          1.035        0.025
  YS02001641           JUNCTION        1.90          1.100        0.000
  YS02001644           JUNCTION        1.88          0.920        0.000
  YS02001647           JUNCTION        1.71          0.900        0.000
  YS02001649           JUNCTION        1.82          1.050        0.000
  YS02001652           JUNCTION        1.58          0.968        0.162
  YS02001655           JUNCTION        1.23          0.764        0.436
  YS02001658           JUNCTION        0.47          0.340        0.960
  YS02001751           JUNCTION        0.96          0.445        0.755
  YS02001754           JUNCTION        1.44          0.851        0.299
  YS02001757           JUNCTION        1.87          1.210        0.000
  YS02001759           JUNCTION        1.80          1.210        0.000
  YS02001762           JUNCTION        1.77          1.150        0.000
  YS02001765           JUNCTION        1.74          1.100        0.000
  YS02001767           JUNCTION        1.72          1.030        0.000
  YS02001770           JUNCTION        1.69          0.920        0.000
  YS02001774           JUNCTION        1.76          1.050        0.000
  YS02001779           JUNCTION        1.40          0.680        0.000
  YS02001783           JUNCTION        1.05          0.611        0.989
  YS02001784           JUNCTION        1.01          0.403        1.087
  YS02001786           JUNCTION        0.82          0.150        1.280
  YS02001882           JUNCTION        0.96          0.830        0.000
  YS02001884           JUNCTION        0.98          0.865        0.005
  YS02001887           JUNCTION        1.03          0.877        0.073
  YS02001890           JUNCTION        1.05          0.760        0.000
  YS02001895           JUNCTION        0.94          0.621        0.129
  YS02001898           JUNCTION        0.93          0.552        0.188
  YS02001901           JUNCTION        1.01          0.684        0.186
  YS02001904           JUNCTION        1.00          0.643        0.207
  YS02001907           JUNCTION        1.41          0.950        0.000
  YS02001910           JUNCTION        1.10          0.998        0.102
  YS02001915           JUNCTION        0.96          0.937        0.063
  YS02001918           JUNCTION        0.79          0.810        0.000
  YS02001920           JUNCTION        0.82          1.140        0.000
  YS02001923           JUNCTION        0.01          0.820        0.000
  YS02001926           JUNCTION        0.01          0.900        0.000
  YS02001929           JUNCTION        0.01          0.780        0.000
  YS02006553           JUNCTION        1.44          1.017        0.173
  YS02006556           JUNCTION        1.27          0.999        0.351
  YS02006558           JUNCTION        1.24          0.985        0.415
  YS02006561           JUNCTION        0.75          0.366        0.784
  YS02163301           JUNCTION        1.90          0.925        0.105
  YS02163601           JUNCTION        1.94          1.080        0.000
  YS02164001           JUNCTION        1.90          1.100        0.000
  
  
  *********************
  Node Flooding Summary
  *********************
  
  Flooding refers to all water that overflows a node, whether it ponds or not.
  --------------------------------------------------------------------------
                                                             Total   Maximum
                                 Maximum   Time of Max       Flood    Ponded
                        Hours       Rate    Occurrence      Volume     Depth
  Node                 Flooded       LPS   days hr:min    10^6 ltr    Meters
  --------------------------------------------------------------------------
  WS02006112              0.01   1405.86      0  00:00       0.047     0.000
  WS02006234              0.01     10.90      0  02:20       0.000     0.000
  WS02006235              0.01     31.85      0  02:20       0.000     0.000
  WS02006238              0.01     21.65      0  02:20       0.000     0.000
  WS02006239              0.01      7.37      0  02:20       0.000     0.000
  WS02006242              0.01     48.23      0  01:21       0.000     0.000
  WS02006248              0.01     28.40      0  01:22       0.000     0.000
  WS02006249              0.33    105.42      0  01:23       0.077     0.000
  WS02006252              0.01      0.91      0  01:19       0.000     0.000
  WS02006256              0.45    278.05      0  02:10       0.157     0.000
  YS02001580              0.01    132.77      0  01:13       0.000     0.000
  YS02001583              0.01     60.29      0  01:13       0.000     0.000
  YS02001586              0.94    167.26      0  01:36       0.332     0.000
  YS02001590              0.01     62.58      0  01:10       0.000     0.000
  YS02001600              0.01      0.50      0  01:13       0.000     0.000
  YS02001601              1.45    670.26      0  01:33       2.105     0.000
  YS02001602              1.36     62.16      0  01:44       0.281     0.000
  YS02001605              0.01      4.58      0  01:13       0.000     0.000
  YS02001607              0.01     56.17      0  01:13       0.000     0.000
  YS02001610              1.21    337.88      0  01:37       0.777     0.000
  YS02001613              0.01      5.48      0  01:13       0.000     0.000
  YS02001616              0.01     49.30      0  01:13       0.000     0.000
  YS02001619              0.01    121.68      0  01:13       0.000     0.000
  YS02001622              0.01    206.99      0  01:13       0.000     0.000
  YS02001625              1.23    814.55      0  01:34       1.830     0.000
  YS02001629              0.02    253.33      0  01:13       0.002     0.000
  YS02001641              0.01     33.65      0  02:17       0.000     0.000
  YS02001644              0.02     27.37      0  01:44       0.000     0.000
  YS02001647              0.01      1.50      0  02:17       0.000     0.000
  YS02001649              0.01      4.70      0  02:12       0.000     0.000
  YS02001757              0.01     10.72      0  02:12       0.000     0.000
  YS02001759              0.01      1.09      0  02:17       0.000     0.000
  YS02001762              0.01      1.12      0  02:17       0.000     0.000
  YS02001765              0.01      0.08      0  02:17       0.000     0.000
  YS02001767              0.01      0.89      0  02:17       0.000     0.000
  YS02001770              0.01      2.33      0  01:44       0.000     0.000
  YS02001774              0.01      1.07      0  01:44       0.000     0.000
  YS02001779              0.01    122.75      0  01:17       0.000     0.000
  YS02001882              0.01     10.47      0  01:15       0.000     0.000
  YS02001890              0.01     25.71      0  01:15       0.000     0.000
  YS02001907              0.71    654.00      0  01:18       1.031     0.000
  YS02001918              0.01    143.76      0  01:16       0.000     0.000
  YS02001920              0.01     14.61      0  01:17       0.000     0.000
  YS02001923              0.01     48.24      0  01:17       0.000     0.000
  YS02001926              0.01    356.79      0  01:17       0.000     0.000
  YS02001929              0.01    106.22      0  01:17       0.000     0.000
  YS02163601              0.01      0.78      0  01:44       0.000     0.000
  YS02164001              0.01      0.72      0  01:44       0.000     0.000
  
  
  **********************
  Storage Volume Summary
  **********************
  
  --------------------------------------------------------------------------------------------------
                         Average     Avg  Evap Exfil       Maximum     Max    Time of Max    Maximum
                          Volume    Pcnt  Pcnt  Pcnt        Volume    Pcnt     Occurrence    Outflow
  Storage Unit           1000 m3    Full  Loss  Loss       1000 m3    Full    days hr:min        LPS
  --------------------------------------------------------------------------------------------------
  CC-storage               2.488      39     0     0         5.411      84       0  02:26    1766.00
  JK-storage               0.073      25     0     0         0.212      73       0  01:20    2300.00
  
  
  ***********************
  Outfall Loading Summary
  ***********************
  
  -----------------------------------------------------------
                         Flow       Avg       Max       Total
                         Freq      Flow      Flow      Volume
  Outfall Node           Pcnt       LPS       LPS    10^6 ltr
  -----------------------------------------------------------
  CC-1                  17.11    683.00    683.00       5.382
  CC-2                  15.41    683.00    683.00       4.756
  JK-1                   9.00   1000.00   1000.00       3.319
  JK-2                   6.47   1000.00   1000.00       2.720
  WSC                  100.00    257.27    528.35       7.550
  -----------------------------------------------------------
  System                29.60   3623.27    528.35      23.726
  
  
  ********************
  Link Flow Summary
  ********************
  
  -----------------------------------------------------------------------------
                                 Maximum  Time of Max   Maximum    Max/    Max/
                                  |Flow|   Occurrence   |Veloc|    Full    Full
  Link                 Type          LPS  days hr:min     m/sec    Flow   Depth
  -----------------------------------------------------------------------------
  1                    CONDUIT    528.35     0  02:31      2.79    0.18    0.29
  WS02003060WS02003069 CONDUIT    530.90     0  02:39      1.63    0.21    0.33
  WS02003066WSF200     CONDUIT    513.42     0  02:28      2.82    0.09    0.22
  WS02003067WS02003066 CONDUIT    513.24     0  02:28      1.18    0.16    0.41
  WS02003069WS02003072 CONDUIT    529.48     0  02:29      1.35    0.25    0.38
  WS02003072WS02003073 CONDUIT    528.29     0  02:30      1.41    1.14    0.37
  WS02004401WS02004402 CONDUIT   1248.69     0  00:01      2.52    1.50    0.88
  WS02004402WS02004403 CONDUIT    929.44     0  00:01      2.21    1.34    0.90
  WS02004403WS02004404 CONDUIT    877.02     0  00:01      2.01    0.63    0.95
  WS02004404WS02004405 CONDUIT    827.31     0  00:01      2.30    8.11    0.97
  WS02004405WS02004406 CONDUIT    768.45     0  00:02      2.19    1.52    0.95
  WS02004406WS02004407 CONDUIT    525.50     0  02:36      1.03    0.23    0.62
  WS02004407WS02004409 CONDUIT    525.08     0  02:36      2.06    0.19    0.47
  WS02004409WS02004410 CONDUIT    520.55     0  02:37      1.39    0.67    0.66
  WS02004410WS02004411 CONDUIT    518.29     0  02:37      1.32    0.71    0.67
  WS02004411WS02004412 CONDUIT    516.64     0  02:37      1.30    0.73    0.68
  WS02004412WS02004413 CONDUIT    514.34     0  02:28      1.26    0.34    0.76
  WS02004413WS02003067 CONDUIT    512.95     0  02:28      1.08    0.22    0.58
  WS02006109WS02006110 CONDUIT   1446.81     0  00:00      2.88    2.78    1.00
  WS02006110WS02006113 CONDUIT    567.86     0  02:11      1.37    0.52    1.00
  WS02006111WS02006112 CONDUIT   2307.30     0  00:00      9.18    1.10    1.00
  WS02006112WS02006115 CONDUIT    953.54     0  00:00      1.24    0.56    1.00
  WS02006113WS02006111 CONDUIT   1180.41     0  00:00      2.47    1.41    1.00
  WS02006115WS02006116 CONDUIT   1264.47     0  00:00      1.74    1.62    1.00
  WS02006116WS02004401 CONDUIT   1786.04     0  00:00      2.94    2.46    0.85
  WS02006228WS02006109 CONDUIT    869.18     0  00:00      1.91    3.80    1.00
  WS02006229WS02006228 CONDUIT    558.54     0  02:10      1.11    1.85    1.00
  WS02006230WS02006229 CONDUIT    696.39     0  00:00      1.89   15.50    1.00
  WS02006231WS02006230 CONDUIT    574.66     0  03:02      1.91    8.72    1.00
  WS02006232WS02006231 CONDUIT    611.21     0  02:20      1.80    1.28    1.00
  WS02006234WS02006232 CONDUIT    607.05     0  02:20      1.58    1.23    1.00
  WS02006235WS02006234 CONDUIT    592.91     0  02:20      1.54    6.26    1.00
  WS02006238WS02006235 CONDUIT    426.41     0  03:05      1.11    0.95    1.00
  WS02006239WS02006238 CONDUIT    425.41     0  03:05      1.11    1.36    1.00
  WS02006240WS02006239 CONDUIT    423.99     0  03:05      1.10    1.33    1.00
  WS02006242WS02006240 CONDUIT    420.07     0  03:05      1.09    1.67    1.00
  WS02006243WS02006242 CONDUIT    419.81     0  01:25      1.16    0.90    1.00
  WS02006245WS02006243 CONDUIT    419.18     0  02:15      1.15    1.24    1.00
  WS02006247WS02006245 CONDUIT    419.41     0  03:05      1.10    3.33    1.00
  WS02006248WS02006247 CONDUIT    419.67     0  02:15      1.14    0.91    1.00
  WS02006249WS02006248 CONDUIT    419.72     0  02:15      1.23    2.30    1.00
  WS02006251WS02006249 CONDUIT    426.33     0  01:23      1.75    1.23    1.00
  WS02006252WS02006251 CONDUIT    407.09     0  01:23     20.67    1.49    1.00
  WS02006256WS02006235 CONDUIT    247.67     0  01:15      3.50    2.62    1.00
  WSF200WS02003060     CONDUIT    514.07     0  02:38      2.04    0.11    0.27
  YS02001580YS02001583 CONDUIT    143.19     0  01:13      0.70    0.55    1.00
  YS02001583YS02001586 CONDUIT    146.94     0  01:12      0.68    0.22    1.00
  YS02001586YS02001590 CONDUIT    318.05     0  01:44      1.28    0.56    1.00
  YS02001590YS02001593 CONDUIT    318.18     0  01:40      1.13    2.00    1.00
  YS02001593YS02001596 CONDUIT    318.06     0  01:33      1.67    0.50    1.00
  YS02001596YS02001600 CONDUIT    318.27     0  01:40      1.23    0.62    1.00
  YS02001600YS02001601 CONDUIT    318.77     0  01:44      1.13    0.55    1.00
  YS02001601YS02001602 CONDUIT    581.56     0  01:12      2.06    2.10    1.00
  YS02001602YS02001605 CONDUIT    581.60     0  01:12      2.06   12.31    1.00
  YS02001605YS02001607 CONDUIT    581.53     0  01:12      2.06    3.19    1.00
  YS02001607YS02001610 CONDUIT    556.21     0  01:12      0.81    0.53    1.00
  YS02001610YS02001613 CONDUIT    560.49     0  01:13      0.77    0.65    1.00
  YS02001613YS02001616 CONDUIT    577.35     0  01:13      0.82    0.49    1.00
  YS02001616YS02001619 CONDUIT    540.85     0  01:13      0.85    0.94    1.00
  YS02001619YS02001622 CONDUIT    976.54     0  01:13      1.76    1.44    1.00
  YS02001622YS02001625 CONDUIT    931.81     0  01:13      1.19    0.50    1.00
  YS02001625YS02001629 CONDUIT    931.75     0  01:13      1.19    0.44    1.00
  YS02001629YS02163301 CONDUIT    908.34     0  01:16      1.16    1.12    1.00
  YS02001633YS02163601 CONDUIT   1341.49     0  01:16      1.71    1.41    1.00
  YS02001641YS02001644 CONDUIT   1341.27     0  01:16      1.71    4.34    1.00
  YS02001644YS02001647 CONDUIT   1737.44     0  01:16      2.25    1.02    1.00
  YS02001647YS02001649 CONDUIT   1767.82     0  01:16      2.34    0.93    1.00
  YS02001649YS02001757 CONDUIT   2027.21     0  01:15      2.62    1.23    1.00
  YS02001652YS02001649 CONDUIT    469.41     0  01:32      1.34    0.23    1.00
  YS02001655YS02001652 CONDUIT    470.89     0  01:32      1.80    0.23    1.00
  YS02001658YS02001655 CONDUIT    542.71     0  01:18      1.99    0.23    1.00
  YS02001661YS02001658 CONDUIT    633.36     0  01:24      2.26    0.25    0.87
  YS02001664YS02001661 CONDUIT    451.60     0  01:33      2.13    0.14    0.53
  YS02001745YS02001748 CONDUIT    470.66     0  01:31      2.11    0.18    0.74
  YS02001748YS02001751 CONDUIT    478.20     0  01:20      1.74    0.24    1.00
  YS02001751YS02001754 CONDUIT    299.54     0  01:26      1.66    0.14    1.00
  YS02001754YS02001757 CONDUIT    301.17     0  01:20      1.09    0.12    1.00
  YS02001757CaochengTiaoxuchi CONDUIT   2973.25     0  01:19      3.79    1.29    1.00
  YS02001759YS02001757 CONDUIT    972.08     0  01:32      1.34    0.69    1.00
  YS02001762YS02001759 CONDUIT    591.19     0  01:32      0.75    0.68    1.00
  YS02001765YS02001762 CONDUIT    587.82     0  01:32      0.85    0.55    1.00
  YS02001767YS02001765 CONDUIT    584.42     0  01:32      0.96    0.74    1.00
  YS02001770YS02001767 CONDUIT    581.74     0  01:32      0.94    2.30    1.00
  YS02001774YS02001770 CONDUIT    156.80     0  01:17      0.75    0.10    1.00
  YS02001779YS02001774 CONDUIT    162.31     0  01:17      0.21    0.08    1.00
  YS02001783YS02001784 CONDUIT   1149.15     0  01:28      2.29    1.58    1.00
  YS02001784YS02001785 CONDUIT   1148.90     0  01:28      2.29    2.67    1.00
  YS02001786YS02001788 CONDUIT   1148.75     0  01:28      2.46    2.21    0.89
  YS02001788YS02001790 CONDUIT   1161.03     0  01:27      2.71    0.86    0.84
  YS02001790YS02001791 CONDUIT   1277.44     0  01:27      3.43    1.39    0.70
  YS02001791YS02001793 CONDUIT   1229.76     0  01:41      6.77    0.53    0.44
  YS02001793JiankangQianchi CONDUIT   1265.81     0  01:35      2.52    0.10    0.64
  YS02001882YS02001884 CONDUIT     92.50     0  01:14      0.43    0.11    1.00
  YS02001884YS02001887 CONDUIT    166.12     0  01:11      0.41    0.22    1.00
  YS02001887YS02001890 CONDUIT    389.33     0  01:29      0.52    0.67    1.00
  YS02001890YS02001895 CONDUIT    389.17     0  01:31      0.50    0.18    1.00
  YS02001895YS02001898 CONDUIT    389.18     0  01:30      0.77    0.68    1.00
  YS02001898YS02001901 CONDUIT    399.28     0  01:15      0.75    0.26    1.00
  YS02001901YS02001904 CONDUIT    400.57     0  01:15      0.51    0.62    1.00
  YS02001904YS02001907 CONDUIT    403.27     0  01:15      0.51    0.14    1.00
  YS02001907YS02006553 CONDUIT    783.33     0  02:01      0.87    0.92    1.00
  YS02001910YS02001907 CONDUIT    890.55     0  01:18      1.13    0.50    1.00
  YS02001915YS02001910 CONDUIT    890.45     0  01:18      1.31    0.44    1.00
  YS02001918YS02001915 CONDUIT    427.93     0  01:18      0.54    0.24    1.00
  YS02001920YS02001918 CONDUIT    427.99     0  01:18      0.71    0.41    1.00
  YS02001923YS02001920 CONDUIT    427.55     0  01:18      0.82    0.19    1.00
  YS02001926YS02001923 CONDUIT    367.21     0  01:19      0.95    0.52    1.00
  YS02001929YS02001926 CONDUIT    352.59     0  01:18      1.09    0.17    1.00
  YS02006553YS02006556 CONDUIT    783.42     0  02:00      1.00    0.67    1.00
  YS02006556YS02006558 CONDUIT    784.18     0  02:01      1.00    0.62    1.00
  YS02006558YS02006561 CONDUIT   1153.34     0  01:17      4.08    2.55    1.00
  YS02006561YS02001783 CONDUIT   1149.27     0  01:28      2.29    0.60    1.00
  YS02163301YS02001633 CONDUIT    908.21     0  01:16      1.16    0.85    1.00
  YS02163601YS02164001 CONDUIT   1341.79     0  01:16      1.71    1.19    1.00
  YS02164001YS02001641 CONDUIT   1340.97     0  01:16      1.71    1.83    1.00
  CC-R1                PUMP       683.00     0  01:23              1.00
  CC-R2                PUMP       683.00     0  01:28              1.00
  CC-S1                PUMP       200.00     0  00:05              1.00
  CC-S2                PUMP       200.00     0  01:19              1.00
  JK-R1                PUMP      1000.00     0  00:05              1.00
  JK-R2                PUMP      1000.00     0  00:05              1.00
  JK-S                 PUMP       300.00     0  01:15              1.00
  
  
  ***************************
  Flow Classification Summary
  ***************************
  
  -------------------------------------------------------------------------------------
                      Adjusted    ---------- Fraction of Time in Flow Class ---------- 
                       /Actual         Up    Down  Sub   Sup   Up    Down  Norm  Inlet 
  Conduit               Length    Dry  Dry   Dry   Crit  Crit  Crit  Crit  Ltd   Ctrl  
  -------------------------------------------------------------------------------------
  1                       1.00   0.00  0.00  0.00  0.00  1.00  0.00  0.00  0.20  0.00
  WS02003060WS02003069    1.00   0.00  0.00  0.00  0.99  0.01  0.00  0.00  0.57  0.00
  WS02003066WSF200        1.00   0.02  0.00  0.00  0.00  0.98  0.00  0.00  0.94  0.00
  WS02003067WS02003066    1.00   0.01  0.01  0.00  0.98  0.00  0.00  0.00  0.00  0.00
  WS02003069WS02003072    1.00   0.00  0.00  0.00  1.00  0.00  0.00  0.00  0.63  0.00
  WS02003072WS02003073    1.00   0.00  0.00  0.00  0.00  0.00  0.00  1.00  0.00  0.00
  WS02004401WS02004402    1.00   0.00  0.00  0.00  1.00  0.00  0.00  0.00  0.00  0.00
  WS02004402WS02004403    1.00   0.00  0.00  0.00  1.00  0.00  0.00  0.00  0.00  0.00
  WS02004403WS02004404    1.00   0.00  0.00  0.00  1.00  0.00  0.00  0.00  0.00  0.00
  WS02004404WS02004405    1.00   0.00  0.00  0.00  1.00  0.00  0.00  0.00  0.02  0.00
  WS02004405WS02004406    1.00   0.00  0.00  0.00  1.00  0.00  0.00  0.00  0.00  0.00
  WS02004406WS02004407    1.00   0.00  0.00  0.00  1.00  0.00  0.00  0.00  0.00  0.00
  WS02004407WS02004409    1.00   0.00  0.00  0.00  1.00  0.00  0.00  0.00  0.99  0.00
  WS02004409WS02004410    1.00   0.00  0.00  0.00  1.00  0.00  0.00  0.00  0.00  0.00
  WS02004410WS02004411    1.00   0.00  0.00  0.00  1.00  0.00  0.00  0.00  0.00  0.00
  WS02004411WS02004412    1.00   0.00  0.00  0.00  1.00  0.00  0.00  0.00  0.00  0.00
  WS02004412WS02004413    1.00   0.00  0.00  0.00  0.99  0.00  0.00  0.00  0.00  0.00
  WS02004413WS02003067    1.00   0.00  0.01  0.00  0.00  0.00  0.99  0.00  0.00  0.00
  WS02006109WS02006110    1.00   0.00  0.00  0.00  1.00  0.00  0.00  0.00  0.00  0.00
  WS02006110WS02006113    1.00   0.00  0.00  0.00  1.00  0.00  0.00  0.00  0.00  0.00
  WS02006111WS02006112    1.00   0.00  0.00  0.00  1.00  0.00  0.00  0.00  1.00  0.00
  WS02006112WS02006115    1.00   0.00  0.00  0.00  1.00  0.00  0.00  0.00  0.00  0.00
  WS02006113WS02006111    1.00   0.00  0.00  0.00  0.00  1.00  0.00  0.00  0.21  0.00
  WS02006115WS02006116    1.00   0.00  0.00  0.00  1.00  0.00  0.00  0.00  0.00  0.00
  WS02006116WS02004401    1.00   0.00  0.00  0.00  1.00  0.00  0.00  0.00  0.00  0.00
  WS02006228WS02006109    1.00   0.00  0.00  0.00  1.00  0.00  0.00  0.00  0.00  0.00
  WS02006229WS02006228    1.00   0.00  0.00  0.00  1.00  0.00  0.00  0.00  0.00  0.00
  WS02006230WS02006229    1.00   0.00  0.00  0.00  1.00  0.00  0.00  0.00  0.00  0.00
  WS02006231WS02006230    1.00   0.00  0.00  0.00  0.23  0.00  0.77  0.00  0.00  0.00
  WS02006232WS02006231    1.00   0.00  0.00  0.00  1.00  0.00  0.00  0.00  0.00  0.00
  WS02006234WS02006232    1.00   0.00  0.00  0.00  1.00  0.00  0.00  0.00  0.00  0.00
  WS02006235WS02006234    1.00   0.00  0.00  0.00  0.98  0.00  0.02  0.00  0.00  0.00
  WS02006238WS02006235    1.00   0.00  0.00  0.00  1.00  0.00  0.00  0.00  0.00  0.00
  WS02006239WS02006238    1.00   0.00  0.00  0.00  1.00  0.00  0.00  0.00  0.00  0.00
  WS02006240WS02006239    1.00   0.01  0.00  0.00  0.93  0.00  0.00  0.05  0.00  0.00
  WS02006242WS02006240    1.00   0.01  0.00  0.00  0.98  0.00  0.01  0.00  0.00  0.00
  WS02006243WS02006242    1.00   0.01  0.00  0.00  0.98  0.00  0.00  0.01  0.21  0.00
  WS02006245WS02006243    1.00   0.01  0.00  0.00  0.97  0.00  0.00  0.02  0.00  0.00
  WS02006247WS02006245    1.00   0.00  0.00  0.00  0.99  0.00  0.00  0.01  0.00  0.00
  WS02006248WS02006247    1.00   0.00  0.00  0.00  0.99  0.00  0.00  0.01  0.21  0.00
  WS02006249WS02006248    1.00   0.00  0.00  0.00  0.94  0.00  0.06  0.00  0.00  0.00
  WS02006251WS02006249    1.00   0.00  0.00  0.00  0.99  0.00  0.00  0.00  0.18  0.00
  WS02006252WS02006251    1.00   0.00  0.04  0.00  0.03  0.00  0.92  0.00  0.00  0.00
  WS02006256WS02006235    1.00   0.00  0.00  0.00  1.00  0.00  0.00  0.00  0.00  0.00
  WSF200WS02003060        1.00   0.00  0.02  0.00  0.03  0.94  0.00  0.00  0.39  0.00
  YS02001580YS02001583    1.00   0.24  0.54  0.00  0.21  0.00  0.00  0.00  0.63  0.00
  YS02001583YS02001586    1.00   0.34  0.41  0.00  0.24  0.00  0.00  0.00  0.63  0.00
  YS02001586YS02001590    1.00   0.20  0.00  0.00  0.42  0.06  0.00  0.32  0.26  0.00
  YS02001590YS02001593    1.00   0.20  0.00  0.00  0.18  0.00  0.61  0.00  0.00  0.00
  YS02001593YS02001596    1.00   0.20  0.00  0.00  0.19  0.00  0.00  0.60  0.01  0.00
  YS02001596YS02001600    1.00   0.21  0.00  0.00  0.22  0.01  0.00  0.57  0.02  0.00
  YS02001600YS02001601    1.00   0.20  0.01  0.00  0.79  0.00  0.00  0.00  0.55  0.00
  YS02001601YS02001602    1.00   0.20  0.00  0.00  0.80  0.00  0.00  0.00  0.00  0.00
  YS02001602YS02001605    1.00   0.20  0.00  0.00  0.80  0.00  0.00  0.00  0.00  0.00
  YS02001605YS02001607    1.00   0.21  0.00  0.00  0.79  0.00  0.00  0.00  0.00  0.00
  YS02001607YS02001610    1.00   0.21  0.00  0.00  0.79  0.00  0.00  0.00  0.00  0.00
  YS02001610YS02001613    1.00   0.20  0.00  0.00  0.80  0.00  0.00  0.00  0.00  0.00
  YS02001613YS02001616    1.00   0.20  0.00  0.00  0.80  0.00  0.00  0.00  0.00  0.00
  YS02001616YS02001619    1.00   0.20  0.00  0.00  0.80  0.00  0.00  0.00  0.00  0.00
  YS02001619YS02001622    1.00   0.20  0.00  0.00  0.79  0.01  0.00  0.00  0.28  0.00
  YS02001622YS02001625    1.00   0.20  0.00  0.00  0.79  0.01  0.00  0.00  0.01  0.00
  YS02001625YS02001629    1.00   0.20  0.02  0.00  0.20  0.00  0.58  0.00  0.00  0.00
  YS02001629YS02163301    1.00   0.21  0.00  0.00  0.79  0.00  0.00  0.00  0.00  0.00
  YS02001633YS02163601    1.00   0.20  0.00  0.00  0.80  0.00  0.00  0.00  0.00  0.00
  YS02001641YS02001644    1.00   0.20  0.00  0.00  0.80  0.00  0.00  0.00  0.00  0.00
  YS02001644YS02001647    1.00   0.20  0.01  0.00  0.79  0.00  0.00  0.00  0.00  0.00
  YS02001647YS02001649    1.00   0.21  0.01  0.00  0.47  0.31  0.00  0.00  0.55  0.00
  YS02001649YS02001757    1.00   0.00  0.21  0.00  0.53  0.26  0.00  0.00  0.12  0.00
  YS02001652YS02001649    1.00   0.21  0.00  0.00  0.78  0.02  0.00  0.00  0.56  0.00
  YS02001655YS02001652    1.00   0.21  0.00  0.00  0.21  0.00  0.00  0.58  0.03  0.00
  YS02001658YS02001655    1.00   0.21  0.00  0.00  0.71  0.08  0.00  0.00  0.61  0.00
  YS02001661YS02001658    1.00   0.21  0.00  0.00  0.51  0.28  0.00  0.00  0.64  0.00
  YS02001664YS02001661    1.00   0.20  0.00  0.00  0.71  0.09  0.00  0.00  0.87  0.00
  YS02001745YS02001748    1.00   0.20  0.00  0.00  0.16  0.00  0.00  0.64  0.06  0.00
  YS02001748YS02001751    1.00   0.20  0.00  0.00  0.73  0.07  0.00  0.00  0.60  0.00
  YS02001751YS02001754    1.00   0.20  0.00  0.00  0.20  0.00  0.00  0.59  0.03  0.00
  YS02001754YS02001757    1.00   0.00  0.20  0.00  0.78  0.01  0.00  0.00  0.57  0.00
  YS02001757CaochengTiaoxuchi    1.00   0.00  0.00  0.00  0.97  0.03  0.00  0.00  0.54  0.00
  YS02001759YS02001757    1.00   0.00  0.20  0.00  0.78  0.02  0.00  0.00  0.44  0.00
  YS02001762YS02001759    1.00   0.20  0.00  0.00  0.79  0.00  0.00  0.00  0.02  0.00
  YS02001765YS02001762    1.00   0.20  0.00  0.00  0.80  0.00  0.00  0.00  0.50  0.00
  YS02001767YS02001765    1.00   0.20  0.00  0.00  0.80  0.00  0.00  0.00  0.01  0.00
  YS02001770YS02001767    1.00   0.20  0.00  0.00  0.80  0.00  0.00  0.00  0.00  0.00
  YS02001774YS02001770    1.00   0.20  0.00  0.00  0.70  0.01  0.09  0.00  0.00  0.00
  YS02001779YS02001774    1.00   0.20  0.52  0.00  0.27  0.00  0.00  0.00  0.56  0.00
  YS02001783YS02001784    1.00   0.22  0.00  0.00  0.77  0.00  0.00  0.00  0.54  0.00
  YS02001784YS02001785    1.00   0.22  0.00  0.00  0.77  0.00  0.00  0.00  0.36  0.00
  YS02001786YS02001788    1.00   0.23  0.00  0.00  0.64  0.13  0.00  0.00  0.00  0.00
  YS02001788YS02001790    1.00   0.23  0.00  0.00  0.16  0.62  0.00  0.00  0.60  0.00
  YS02001790YS02001791    1.00   0.23  0.00  0.00  0.00  0.77  0.00  0.00  0.16  0.00
  YS02001791YS02001793    1.00   0.23  0.00  0.00  0.00  0.77  0.00  0.00  0.02  0.00
  YS02001793JiankangQianchi    1.00   0.00  0.23  0.00  0.71  0.05  0.00  0.00  0.82  0.00
  YS02001882YS02001884    1.00   0.21  0.00  0.00  0.79  0.00  0.00  0.00  0.00  0.00
  YS02001884YS02001887    1.00   0.21  0.00  0.00  0.79  0.00  0.00  0.00  0.00  0.00
  YS02001887YS02001890    1.00   0.20  0.00  0.00  0.79  0.00  0.01  0.00  0.00  0.00
  YS02001890YS02001895    1.00   0.20  0.01  0.00  0.79  0.00  0.00  0.00  0.00  0.00
  YS02001895YS02001898    1.00   0.21  0.00  0.00  0.77  0.00  0.01  0.00  0.00  0.00
  YS02001898YS02001901    1.00   0.22  0.00  0.00  0.78  0.00  0.00  0.00  0.00  0.00
  YS02001901YS02001904    1.00   0.22  0.00  0.00  0.78  0.00  0.00  0.00  0.00  0.00
  YS02001904YS02001907    1.00   0.20  0.02  0.00  0.78  0.00  0.00  0.00  0.00  0.00
  YS02001907YS02006553    1.00   0.20  0.01  0.00  0.79  0.00  0.00  0.00  0.00  0.00
  YS02001910YS02001907    1.00   0.20  0.00  0.00  0.79  0.00  0.00  0.01  0.00  0.00
  YS02001915YS02001910    1.00   0.20  0.00  0.00  0.78  0.02  0.00  0.00  0.00  0.00
  YS02001918YS02001915    1.00   0.20  0.02  0.00  0.78  0.00  0.00  0.00  0.63  0.00
  YS02001920YS02001918    1.00   0.21  0.01  0.00  0.78  0.00  0.00  0.00  0.00  0.00
  YS02001923YS02001920    1.00   0.21  0.00  0.00  0.78  0.01  0.00  0.00  0.72  0.00
  YS02001926YS02001923    1.00   0.20  0.01  0.00  0.09  0.00  0.70  0.00  0.00  0.00
  YS02001929YS02001926    1.00   0.20  0.00  0.00  0.79  0.01  0.00  0.00  0.76  0.00
  YS02006553YS02006556    1.00   0.21  0.00  0.00  0.79  0.00  0.00  0.00  0.00  0.00
  YS02006556YS02006558    1.00   0.20  0.00  0.00  0.80  0.00  0.00  0.00  0.00  0.00
  YS02006558YS02006561    1.00   0.22  0.00  0.00  0.08  0.69  0.00  0.00  0.14  0.00
  YS02006561YS02001783    1.00   0.22  0.00  0.00  0.16  0.62  0.00  0.00  0.62  0.00
  YS02163301YS02001633    1.00   0.20  0.01  0.00  0.79  0.00  0.00  0.00  0.00  0.00
  YS02163601YS02164001    1.00   0.20  0.01  0.00  0.79  0.00  0.00  0.00  0.00  0.00
  YS02164001YS02001641    1.00   0.20  0.01  0.00  0.79  0.00  0.00  0.00  0.00  0.00
  
  
  *************************
  Conduit Surcharge Summary
  *************************
  
  ----------------------------------------------------------------------------
                                                           Hours        Hours 
                         --------- Hours Full --------   Above Full   Capacity
  Conduit                Both Ends  Upstream  Dnstream   Normal Flow   Limited
  ----------------------------------------------------------------------------
  WS02003072WS02003073        0.01      0.01      0.01      0.51         0.01
  WS02004401WS02004402        0.01      0.01      0.01      0.01         0.01
  WS02004402WS02004403        0.01      0.01      0.01      0.02         0.01
  WS02004404WS02004405        0.01      0.01      0.01      6.22         0.01
  WS02004405WS02004406        0.01      0.01      0.01      0.14         0.01
  WS02006109WS02006110        0.23      0.23      2.78      0.31         0.01
  WS02006110WS02006113        0.01      0.01      2.76      0.01         0.01
  WS02006111WS02006112        0.01      0.01      2.99      0.01         0.01
  WS02006112WS02006115        0.01      0.01      0.28      0.01         0.01
  WS02006113WS02006111        0.01      0.01      0.01      0.01         0.01
  WS02006115WS02006116        0.01      0.01      0.01      0.01         0.01
  WS02006116WS02004401        0.01      0.01      0.01      0.02         0.01
  WS02006228WS02006109        2.74      2.78      2.75      3.04         2.74
  WS02006229WS02006228        2.73      2.75      2.73      2.91         2.73
  WS02006230WS02006229        2.83      2.90      2.84      6.29         2.83
  WS02006231WS02006230        0.23      0.23      0.33      6.16         0.01
  WS02006232WS02006231        0.30      0.30      2.77      0.35         0.01
  WS02006234WS02006232        2.70      2.70      2.77      0.33         0.33
  WS02006235WS02006234        0.46      0.46      2.71      6.11         0.01
  WS02006238WS02006235        2.72      2.72      2.78      0.01         0.01
  WS02006239WS02006238        2.73      2.74      2.74      2.74         2.64
  WS02006240WS02006239        2.72      2.73      2.72      2.73         2.59
  WS02006242WS02006240        2.73      2.73      2.75      2.81         0.01
  WS02006243WS02006242        2.72      2.72      2.74      0.01         0.02
  WS02006245WS02006243        2.72      2.72      2.72      2.45         2.50
  WS02006247WS02006245        2.72      2.72      2.72      6.11         2.71
  WS02006248WS02006247        2.71      2.71      2.72      0.01         0.03
  WS02006249WS02006248        2.71      2.71      2.71      6.10         0.01
  WS02006251WS02006249        2.71      2.71      2.71      2.73         2.67
  WS02006252WS02006251        2.75      2.75      2.79      2.75         0.01
  WS02006256WS02006235        6.12      6.14      7.84      0.45         0.01
  YS02001580YS02001583        1.26      1.26      1.34      0.01         0.01
  YS02001583YS02001586        1.27      1.27      1.59      0.01         0.01
  YS02001586YS02001590        1.60      1.60      1.79      0.01         0.01
  YS02001590YS02001593        1.80      1.80      1.82      1.82         0.01
  YS02001593YS02001596        1.81      1.81      1.90      0.01         0.01
  YS02001596YS02001600        1.93      1.93      1.97      0.01         0.01
  YS02001600YS02001601        2.00      2.00      2.14      0.01         0.01
  YS02001601YS02001602        2.09      2.09      2.16      1.97         0.01
  YS02001602YS02001605        2.07      2.07      2.09      2.65         0.01
  YS02001605YS02001607        2.05      2.07      2.05      2.09         2.03
  YS02001607YS02001610        1.81      1.81      1.83      0.01         0.01
  YS02001610YS02001613        1.81      1.81      1.83      0.01         0.01
  YS02001613YS02001616        1.77      1.77      1.81      0.01         0.01
  YS02001616YS02001619        1.75      1.75      1.77      0.01         0.01
  YS02001619YS02001622        1.75      1.75      1.75      1.59         1.35
  YS02001622YS02001625        1.75      1.75      1.89      0.01         0.01
  YS02001625YS02001629        1.64      1.64      1.89      0.01         0.01
  YS02001629YS02163301        1.89      1.89      1.90      0.07         0.13
  YS02001633YS02163601        1.92      1.92      1.94      0.14         0.25
  YS02001641YS02001644        1.88      1.90      1.88      2.18         1.87
  YS02001644YS02001647        1.71      1.71      1.88      0.03         0.01
  YS02001647YS02001649        1.71      1.71      1.82      0.01         0.01
  YS02001649YS02001757        1.81      1.82      1.87      0.21         0.14
  YS02001652YS02001649        1.64      1.64      1.82      0.01         0.01
  YS02001655YS02001652        1.23      1.23      1.58      0.01         0.01
  YS02001658YS02001655        0.47      0.47      1.23      0.01         0.01
  YS02001661YS02001658        0.01      0.01      0.47      0.01         0.01
  YS02001748YS02001751        0.18      0.18      0.96      0.01         0.01
  YS02001751YS02001754        0.95      0.95      1.44      0.01         0.01
  YS02001754YS02001757        1.52      1.52      1.87      0.01         0.01
  YS02001757CaochengTiaoxuchi        1.82      1.87      2.67      0.64         0.53
  YS02001759YS02001757        1.80      1.80      1.87      0.01         0.01
  YS02001762YS02001759        1.77      1.77      1.80      0.01         0.02
  YS02001765YS02001762        1.74      1.74      1.77      0.01         0.01
  YS02001767YS02001765        1.72      1.72      1.74      0.01         0.02
  YS02001770YS02001767        1.71      1.72      1.72      1.10         1.07
  YS02001774YS02001770        1.69      1.69      1.76      0.01         0.01
  YS02001779YS02001774        1.40      1.40      1.76      0.01         0.01
  YS02001783YS02001784        1.01      1.05      1.01      1.31         1.01
  YS02001784YS02001785        0.82      1.01      0.82      1.85         0.82
  YS02001786YS02001788        0.01      0.82      0.01      1.49         0.01
  YS02001790YS02001791        0.01      0.01      0.01      0.99         0.01
  YS02001793JiankangQianchi        0.01      0.01      6.85      0.01         0.01
  YS02001882YS02001884        0.96      0.96      0.98      0.01         0.01
  YS02001884YS02001887        1.02      1.02      1.03      0.01         0.01
  YS02001887YS02001890        1.05      1.05      1.07      0.01         0.01
  YS02001890YS02001895        0.94      0.94      1.10      0.01         0.01
  YS02001895YS02001898        0.93      0.93      0.94      0.01         0.01
  YS02001898YS02001901        0.94      0.94      1.01      0.01         0.01
  YS02001901YS02001904        1.00      1.00      1.01      0.01         0.01
  YS02001904YS02001907        1.00      1.00      1.45      0.01         0.01
  YS02001907YS02006553        1.87      1.87      1.90      0.01         0.01
  YS02001910YS02001907        1.10      1.10      1.41      0.01         0.01
  YS02001915YS02001910        0.96      0.96      1.10      0.01         0.01
  YS02001918YS02001915        0.79      0.79      0.96      0.01         0.01
  YS02001920YS02001918        0.79      0.79      0.82      0.01         0.01
  YS02001923YS02001920        0.72      0.72      0.82      0.01         0.01
  YS02001926YS02001923        0.01      0.01      0.01      0.01         0.01
  YS02001929YS02001926        0.01      0.01      0.01      0.01         0.01
  YS02006553YS02006556        1.27      1.27      1.44      0.01         0.01
  YS02006556YS02006558        1.34      1.34      1.49      0.01         0.01
  YS02006558YS02006561        0.86      1.24      0.86      1.73         0.86
  YS02006561YS02001783        0.75      0.75      1.05      0.01         0.01
  YS02163301YS02001633        1.90      1.90      1.93      0.01         0.01
  YS02163601YS02164001        1.90      1.90      1.94      0.09         0.01
  YS02164001YS02001641        1.89      1.90      1.90      1.32         1.28
  
  
  ***************
  Pumping Summary
  ***************
  
  ---------------------------------------------------------------------------------------------------------
                                                  Min       Avg       Max     Total     Power    % Time Off
                        Percent   Number of      Flow      Flow      Flow    Volume     Usage    Pump Curve
  Pump                 Utilized   Start-Ups       LPS       LPS       LPS  10^6 ltr     Kw-hr    Low   High
  ---------------------------------------------------------------------------------------------------------
  CC-R1                   27.36           1      0.00    683.00    683.00     5.382    105.53    0.0    0.0
  CC-R2                   24.18           1      0.00    683.00    683.00     4.755     94.03    0.0    0.0
  CC-S1                   77.29          22      0.00    200.00    200.00     4.452     25.49    0.0    0.0
  CC-S2                   34.39           1      0.00    200.00    200.00     1.981      9.52    0.0    0.0
  JK-R1                   11.55          54      0.00   1000.00   1000.00     3.328     30.35    0.0    0.0
  JK-R2                    9.48          53      0.00   1000.00   1000.00     2.729     22.96    0.0    0.0
  JK-S                     5.67           6      0.00    300.00    300.00     0.490      7.42    0.0    0.0
  

  Analysis begun on:  Fri Sep  8 22:11:30 2023
  Analysis ended on:  Fri Sep  8 22:11:44 2023
  Total elapsed time: 00:00:14