
  OWA STORM WATER MANAGEMENT MODEL - VERSION v5.1.14 (OWA 2022-07-31)
  --------------------------------------------------------------

  WARNING 04: minimum elevation drop used for Conduit WS02004404WS02004405
  WARNING 03: negative offset ignored for Link YS02001904YS02001907
  
  *********************************************************
  NOTE: The summary statistics displayed in this report are
  based on results found at every computational time step,  
  not just on results from each reporting time step.
  *********************************************************
  
  ****************
  Analysis Options
  ****************
  Flow Units ............... LPS
  Process Models:
    Rainfall/Runoff ........ YES
    RDII ................... NO
    Snowmelt ............... NO
    Groundwater ............ NO
    Flow Routing ........... YES
    Ponding Allowed ........ NO
    Water Quality .......... NO
  Infiltration Method ...... HORTON
  Flow Routing Method ...... DYNWAVE
  Surcharge Method ......... EXTRAN
  Starting Date ............ 08/28/2015 08:00:00
  Ending Date .............. 08/28/2015 16:00:00
  Antecedent Dry Days ...... 8.0
  Report Time Step ......... 00:01:00
  Wet Time Step ............ 00:01:00
  Dry Time Step ............ 00:01:00
  Routing Time Step ........ 30.00 sec
  Variable Time Step ....... YES
  Maximum Trials ........... 8
  Number of Threads ........ 1
  Head Tolerance ........... 0.001500 m
  
  
  **************************        Volume         Depth
  Runoff Quantity Continuity     hectare-m            mm
  **************************     ---------       -------
  Total Precipitation ......         1.817        54.785
  Evaporation Loss .........         0.000         0.000
  Infiltration Loss ........         0.099         2.991
  Surface Runoff ...........         1.685        50.808
  Final Storage ............         0.033         0.994
  Continuity Error (%) .....        -0.016
  
  
  **************************        Volume        Volume
  Flow Routing Continuity        hectare-m      10^6 ltr
  **************************     ---------     ---------
  Dry Weather Inflow .......         0.000         0.000
  Wet Weather Inflow .......         1.686        16.860
  Groundwater Inflow .......         0.000         0.000
  RDII Inflow ..............         0.000         0.000
  External Inflow ..........         0.083         0.834
  External Outflow .........         1.553        15.530
  Flooding Loss ............         0.311         3.108
  Evaporation Loss .........         0.000         0.000
  Exfiltration Loss ........         0.000         0.000
  Initial Stored Volume ....         0.243         2.431
  Final Stored Volume ......         0.181         1.809
  Continuity Error (%) .....        -1.601
  
  
  *************************
  Highest Continuity Errors
  *************************
  Node YS02001583 (-3.96%)
  Node YS02001884 (3.73%)
  Node YS02001774 (1.31%)
  
  
  ***************************
  Time-Step Critical Elements
  ***************************
  Link WS02006252WS02006251 (80.23%)
  Link WS02006235WS02006234 (5.48%)
  Link WS02004404WS02004405 (4.27%)
  Link YS02001791YS02001793 (3.11%)
  Link WS02006238WS02006235 (1.70%)
  
  
  ********************************
  Highest Flow Instability Indexes
  ********************************
  Link WS02006113WS02006111 (56)
  Link WS02006111WS02006112 (29)
  Link WS02004404WS02004405 (15)
  Link WS02004403WS02004404 (13)
  Link WS02004405WS02004406 (12)
  
  
  *************************
  Routing Time Step Summary
  *************************
  Minimum Time Step           :     0.02 sec
  Average Time Step           :     1.13 sec
  Maximum Time Step           :    30.00 sec
  Percent in Steady State     :    -0.00
  Average Iterations per Step :     2.40
  Percent Not Converging      :     3.94
  
  
  ***************************
  Subcatchment Runoff Summary
  ***************************
  
  ------------------------------------------------------------------------------------------------------------------------------
                            Total      Total      Total      Total     Imperv       Perv      Total       Total     Peak  Runoff
                           Precip      Runon       Evap      Infil     Runoff     Runoff     Runoff      Runoff   Runoff   Coeff
  Subcatchment                 mm         mm         mm         mm         mm         mm         mm    10^6 ltr      LPS
  ------------------------------------------------------------------------------------------------------------------------------
  sub60                     54.78       0.00       0.00       1.81      47.00       4.76      51.76        0.68   394.33   0.945
  sub61                     54.78       0.00       0.00       2.63      44.34       6.69      51.02        0.94   546.20   0.931
  sub62                     54.78       0.00       0.00       1.21      49.11       3.18      52.29        1.43   768.91   0.954
  sub63                     54.78       0.00       0.00       4.83      37.92      11.06      48.98        1.11   609.05   0.894
  sub64                     54.78       0.00       0.00       2.44      45.36       5.77      51.13        1.23   627.03   0.933
  sub65                     54.78       0.00       0.00       2.12      46.41       5.01      51.41        1.42   701.93   0.938
  sub66                     54.78       0.00       0.00       5.93      37.82       9.96      47.78        2.23   914.48   0.872
  sub67                     54.78       0.00       0.00       1.17      49.15       3.22      52.37        0.97   589.48   0.956
  sub68                     54.78       0.00       0.00       2.18      45.92       5.50      51.42        1.42   788.22   0.939
  sub69                     54.78       0.00       0.00       1.93      46.45       6.29      52.74        1.95   935.95   0.963
  sub70                     54.78       0.00       0.00       6.35      35.99      12.28      48.27        1.39   516.65   0.881
  sub71                     54.78       0.00       0.00       1.24      49.07       3.14      52.22        1.37   681.03   0.953
  sub72                     54.78       0.00       0.00       1.10      49.54       2.73      52.28        0.72   329.72   0.954
  
  
  ******************
  Node Depth Summary
  ******************
  
  ---------------------------------------------------------------------------------
                                 Average  Maximum  Maximum  Time of Max    Reported
                                   Depth    Depth      HGL   Occurrence   Max Depth
  Node                 Type       Meters   Meters   Meters  days hr:min      Meters
  ---------------------------------------------------------------------------------
  WS02003060           JUNCTION     0.24     0.33     5.27     0  02:20        0.33
  WS02003066           JUNCTION     0.20     0.27     5.82     0  02:20        0.27
  WS02003067           JUNCTION     0.52     0.65     5.97     0  02:20        0.65
  WS02003069           JUNCTION     0.26     0.37     4.96     0  02:21        0.37
  WS02003072           JUNCTION     0.33     0.44     4.82     0  03:12        0.44
  WS02003073           JUNCTION     0.19     0.26     4.33     0  03:13        0.26
  WS02004401           JUNCTION     0.60     0.77     6.77     0  02:10        0.77
  WS02004402           JUNCTION     0.64     0.80     6.76     0  02:07        0.80
  WS02004403           JUNCTION     0.66     0.82     6.75     0  02:07        0.82
  WS02004404           JUNCTION     0.74     0.91     6.76     0  04:02        0.90
  WS02004405           JUNCTION     0.73     0.89     6.74     0  02:07        0.88
  WS02004406           JUNCTION     0.74     0.89     6.72     0  02:07        0.89
  WS02004407           JUNCTION     0.18     0.26     6.57     0  02:07        0.26
  WS02004409           JUNCTION     0.40     0.57     6.34     0  02:47        0.57
  WS02004410           JUNCTION     0.42     0.59     6.31     0  02:30        0.59
  WS02004411           JUNCTION     0.45     0.61     6.29     0  02:48        0.61
  WS02004412           JUNCTION     0.47     0.62     6.26     0  03:11        0.62
  WS02004413           JUNCTION     0.64     0.79     6.26     0  02:19        0.79
  WS02006109           JUNCTION     0.64     1.24     7.85     0  00:00        0.98
  WS02006110           JUNCTION     0.65     1.45     8.04     0  00:00        0.93
  WS02006111           JUNCTION     0.18     1.67     8.37     0  00:00        0.56
  WS02006112           JUNCTION     0.75     2.68     8.56     0  00:00        1.29
  WS02006113           JUNCTION     0.27     1.50     8.40     0  00:00        0.45
  WS02006115           JUNCTION     0.48     1.69     7.83     0  00:00        0.86
  WS02006116           JUNCTION     0.57     1.11     7.15     0  00:00        0.77
  WS02006228           JUNCTION     0.62     1.64     8.29     0  00:00        1.07
  WS02006229           JUNCTION     0.59     1.31     8.00     0  00:00        1.09
  WS02006230           JUNCTION     0.57     1.20     7.94     0  02:04        1.18
  WS02006231           JUNCTION     0.40     0.97     8.09     0  02:04        0.97
  WS02006232           JUNCTION     0.53     1.19     8.23     0  02:04        1.19
  WS02006234           JUNCTION     0.43     1.22     8.38     0  02:04        1.22
  WS02006235           JUNCTION     0.46     1.30     8.46     0  02:04        1.30
  WS02006238           JUNCTION     0.50     1.33     8.48     0  02:04        1.33
  WS02006239           JUNCTION     0.46     1.31     8.51     0  02:04        1.31
  WS02006240           JUNCTION     0.43     1.26     8.55     0  02:04        1.25
  WS02006242           JUNCTION     0.51     1.31     8.58     0  02:04        1.31
  WS02006243           JUNCTION     0.40     1.19     8.61     0  02:04        1.19
  WS02006245           JUNCTION     0.41     1.16     8.64     0  02:04        1.15
  WS02006247           JUNCTION     0.44     1.16     8.66     0  02:04        1.15
  WS02006248           JUNCTION     0.40     1.09     8.68     0  02:04        1.08
  WS02006249           JUNCTION     0.44     1.09     8.69     0  02:03        1.09
  WS02006251           JUNCTION     0.43     1.38     9.05     0  02:03        1.12
  WS02006252           JUNCTION     0.36     1.50     9.74     0  01:58        0.68
  WS02006256           JUNCTION     0.70     2.35     9.28     0  01:59        2.35
  WSF200               JUNCTION     0.17     0.25     5.48     0  02:20        0.25
  YS02001580           JUNCTION     0.04     1.05     9.59     0  01:55        1.05
  YS02001583           JUNCTION     0.07     1.14     9.64     0  01:55        1.14
  YS02001586           JUNCTION     0.11     1.13     9.30     0  01:55        1.13
  YS02001590           JUNCTION     0.18     1.40     9.26     0  01:54        1.40
  YS02001593           JUNCTION     0.13     1.32     9.18     0  01:56        1.28
  YS02001596           JUNCTION     0.18     1.68     9.10     0  01:56        1.65
  YS02001600           JUNCTION     0.22     1.87     9.00     0  01:55        1.86
  YS02001601           JUNCTION     0.37     2.06     8.90     0  01:54        2.06
  YS02001602           JUNCTION     0.30     1.87     8.77     0  01:55        1.87
  YS02001605           JUNCTION     0.28     1.78     8.68     0  01:55        1.78
  YS02001607           JUNCTION     0.28     1.68     8.53     0  01:55        1.64
  YS02001610           JUNCTION     0.32     1.68     8.48     0  01:55        1.68
  YS02001613           JUNCTION     0.28     1.68     8.52     0  01:55        1.65
  YS02001616           JUNCTION     0.23     1.61     8.52     0  01:55        1.59
  YS02001619           JUNCTION     0.21     1.61     8.54     0  01:55        1.57
  YS02001622           JUNCTION     0.20     1.62     8.52     0  01:55        1.55
  YS02001625           JUNCTION     0.42     1.78     8.38     0  01:55        1.78
  YS02001629           JUNCTION     0.28     1.85     8.40     0  01:55        1.85
  YS02001633           JUNCTION     0.35     2.08     8.53     0  01:59        2.04
  YS02001641           JUNCTION     0.34     2.01     8.44     0  01:59        1.98
  YS02001644           JUNCTION     0.34     1.92     8.35     0  01:59        1.92
  YS02001647           JUNCTION     0.17     1.79     8.40     0  02:00        1.71
  YS02001649           JUNCTION     0.20     1.98     8.37     0  02:00        1.88
  YS02001652           JUNCTION     0.12     1.85     8.45     0  02:00        1.72
  YS02001655           JUNCTION     0.09     1.86     8.71     0  02:00        1.51
  YS02001658           JUNCTION     0.07     1.83     8.97     0  02:00        1.26
  YS02001661           JUNCTION     0.10     1.37     8.77     0  02:01        1.03
  YS02001664           JUNCTION     0.04     0.57     8.49     0  02:01        0.44
  YS02001745           JUNCTION     0.04     0.78     8.30     0  02:01        0.77
  YS02001748           JUNCTION     0.06     1.76     8.84     0  02:00        1.19
  YS02001751           JUNCTION     0.08     1.72     8.60     0  02:00        1.35
  YS02001754           JUNCTION     0.10     1.78     8.39     0  02:00        1.59
  YS02001757           JUNCTION     0.21     2.01     8.27     0  02:00        1.89
  YS02001759           JUNCTION     0.17     1.95     8.31     0  02:00        1.89
  YS02001762           JUNCTION     0.16     1.94     8.34     0  02:00        1.88
  YS02001765           JUNCTION     0.15     1.91     8.36     0  02:00        1.85
  YS02001767           JUNCTION     0.15     1.87     8.36     0  02:00        1.85
  YS02001770           JUNCTION     0.16     1.95     8.44     0  02:00        1.95
  YS02001774           JUNCTION     0.21     2.02     8.45     0  02:00        2.02
  YS02001779           JUNCTION     0.09     1.68     8.37     0  01:59        1.68
  YS02001783           JUNCTION     0.14     1.51     7.65     0  01:58        1.23
  YS02001784           JUNCTION     0.15     1.25     7.32     0  01:58        1.11
  YS02001786           JUNCTION     0.13     0.93     6.96     0  01:58        0.88
  YS02001788           JUNCTION     0.09     0.62     6.60     0  02:00        0.62
  YS02001790           JUNCTION     0.11     0.72     6.37     0  02:04        0.72
  YS02001791           JUNCTION     0.07     0.44     5.91     0  02:08        0.43
  YS02001793           JUNCTION     0.03     0.31     5.14     0  02:00        0.27
  YS02001882           JUNCTION     0.19     1.83     8.55     0  01:57        1.63
  YS02001884           JUNCTION     0.26     1.93     8.55     0  01:57        1.73
  YS02001887           JUNCTION     0.32     1.94     8.48     0  01:57        1.81
  YS02001890           JUNCTION     0.35     1.81     8.32     0  01:57        1.81
  YS02001895           JUNCTION     0.16     1.59     8.33     0  01:58        1.57
  YS02001898           JUNCTION     0.17     1.60     8.33     0  01:58        1.56
  YS02001901           JUNCTION     0.26     1.70     8.31     0  01:58        1.67
  YS02001904           JUNCTION     0.24     1.65     8.28     0  01:58        1.63
  YS02001907           JUNCTION     0.50     1.96     8.25     0  01:58        1.96
  YS02001910           JUNCTION     0.34     1.98     8.48     0  01:57        1.82
  YS02001915           JUNCTION     0.18     2.00     8.72     0  01:57        1.67
  YS02001918           JUNCTION     0.08     1.81     8.88     0  01:59        1.38
  YS02001920           JUNCTION     0.13     2.14     9.15     0  01:59        1.47
  YS02001923           JUNCTION     0.06     2.03     9.29     0  01:59        1.25
  YS02001926           JUNCTION     0.10     1.90     9.35     0  01:59        1.14
  YS02001929           JUNCTION     0.05     1.78     9.47     0  01:59        0.98
  YS02006553           JUNCTION     0.50     2.05     8.34     0  01:58        1.97
  YS02006556           JUNCTION     0.48     2.12     8.43     0  01:58        1.94
  YS02006558           JUNCTION     0.52     2.18     8.45     0  01:58        1.99
  YS02006561           JUNCTION     0.08     1.33     7.99     0  01:58        0.88
  YS02163301           JUNCTION     0.30     1.96     8.48     0  01:59        1.92
  YS02163601           JUNCTION     0.38     2.08     8.48     0  01:59        2.08
  YS02164001           JUNCTION     0.33     2.03     8.49     0  01:59        2.00
  CC-1                 OUTFALL      0.00     0.00     0.00     0  00:00        0.00
  CC-2                 OUTFALL      0.00     0.00     0.00     0  00:00        0.00
  JK-1                 OUTFALL      0.00     0.00     0.00     0  00:00        0.00
  JK-2                 OUTFALL      0.00     0.00     0.00     0  00:00        0.00
  WSC                  OUTFALL      0.19     0.26     0.93     0  03:14        0.26
  CC-storage           STORAGE      0.77     1.62     7.12     0  02:28        1.62
  JK-storage           STORAGE      1.36     4.24     5.04     0  02:00        4.14
  
  
  *******************
  Node Inflow Summary
  *******************
  
  -------------------------------------------------------------------------------------------------
                                  Maximum  Maximum                  Lateral       Total        Flow
                                  Lateral    Total  Time of Max      Inflow      Inflow     Balance
                                   Inflow   Inflow   Occurrence      Volume      Volume       Error
  Node                 Type           LPS      LPS  days hr:min    10^6 ltr    10^6 ltr     Percent
  -------------------------------------------------------------------------------------------------
  WS02003060           JUNCTION     16.53   427.56     0  02:20       0.476        6.59       0.035
  WS02003066           JUNCTION      0.00   410.91     0  02:20           0        6.11       0.021
  WS02003067           JUNCTION      0.00   410.88     0  02:20           0        6.12       0.067
  WS02003069           JUNCTION      0.32   427.76     0  02:21     0.00922         6.6       0.056
  WS02003072           JUNCTION      0.00   427.61     0  02:21           0        6.59       0.100
  WS02003073           JUNCTION      1.82   429.41     0  03:13      0.0524        6.64       0.080
  WS02004401           JUNCTION      0.00  1786.04     0  00:00           0        6.23       0.174
  WS02004402           JUNCTION      0.00  1248.69     0  00:01           0        6.22       0.175
  WS02004403           JUNCTION      0.00   929.44     0  00:01           0        6.21       0.171
  WS02004404           JUNCTION      0.00   877.02     0  00:01           0         6.2       0.250
  WS02004405           JUNCTION      0.00   827.31     0  00:01           0        6.18       0.096
  WS02004406           JUNCTION      0.00   768.45     0  00:02           0        6.17       0.347
  WS02004407           JUNCTION      0.00   421.64     0  02:07           0        6.15       0.016
  WS02004409           JUNCTION      0.00   420.64     0  02:07           0        6.15       0.041
  WS02004410           JUNCTION      0.00   411.42     0  02:47           0        6.15       0.069
  WS02004411           JUNCTION      0.00   411.29     0  02:48           0        6.14       0.089
  WS02004412           JUNCTION      0.00   411.06     0  02:35           0        6.14       0.117
  WS02004413           JUNCTION      0.00   411.21     0  02:48           0        6.13       0.216
  WS02006109           JUNCTION      0.00  1446.81     0  00:00           0        6.13      -0.063
  WS02006110           JUNCTION      0.00   547.74     0  02:04           0         6.1      -0.892
  WS02006111           JUNCTION      0.00  1180.41     0  00:00           0        6.15      -0.696
  WS02006112           JUNCTION      0.00  2307.30     0  00:00           0         6.2       0.002
  WS02006113           JUNCTION      0.00   562.05     0  02:04           0        6.12      -0.618
  WS02006115           JUNCTION      0.00   953.54     0  00:00           0        6.17      -0.579
  WS02006116           JUNCTION      0.00  1264.47     0  00:00           0         6.2      -0.377
  WS02006228           JUNCTION      0.00   869.18     0  00:00           0        6.11       0.001
  WS02006229           JUNCTION      0.00   549.12     0  02:04           0         6.1      -0.049
  WS02006230           JUNCTION     10.28   706.67     0  00:00       0.296        6.09       0.033
  WS02006231           JUNCTION      0.00   540.26     0  02:03           0        5.78       0.019
  WS02006232           JUNCTION      0.00   540.79     0  02:03           0        5.78       0.068
  WS02006234           JUNCTION      0.00   541.79     0  02:03           0        5.77      -0.011
  WS02006235           JUNCTION      0.00   541.24     0  02:03           0        5.77       0.040
  WS02006238           JUNCTION      0.00   422.21     0  02:05           0         5.7      -0.014
  WS02006239           JUNCTION      0.00   421.55     0  02:05           0         5.7      -0.060
  WS02006240           JUNCTION      0.00   419.88     0  02:05           0         5.7      -0.004
  WS02006242           JUNCTION      0.00   419.40     0  02:05           0         5.7       0.028
  WS02006243           JUNCTION      0.00   418.67     0  02:05           0        5.69      -0.040
  WS02006245           JUNCTION      0.00   418.74     0  02:05           0         5.7       0.111
  WS02006247           JUNCTION      0.00   418.02     0  02:05           0         5.7       0.013
  WS02006248           JUNCTION      0.00   417.49     0  02:05           0         5.7      -0.020
  WS02006249           JUNCTION      0.00   426.20     0  02:03           0        5.72       0.131
  WS02006251           JUNCTION      0.00   406.79     0  02:03           0        5.72       0.006
  WS02006252           JUNCTION      0.00   400.00     0  01:58           0        5.71      -0.174
  WS02006256           JUNCTION      0.00   300.00     0  01:59           0      0.0942       0.417
  WSF200               JUNCTION      0.00   410.90     0  02:20           0        6.11       0.008
  YS02001580           JUNCTION      0.00   137.97     0  01:55           0     0.00429       0.107
  YS02001583           JUNCTION      0.00   162.73     0  01:55           0      0.0154      -3.810
  YS02001586           JUNCTION    516.65   516.65     0  02:05        1.39        1.41       0.087
  YS02001590           JUNCTION      0.00   318.45     0  02:02           0        1.24      -0.028
  YS02001593           JUNCTION      0.00   317.99     0  02:02           0        1.24      -0.013
  YS02001596           JUNCTION      0.00   317.97     0  02:02           0        1.24      -0.013
  YS02001600           JUNCTION      0.00   318.14     0  02:02           0        1.24      -0.006
  YS02001601           JUNCTION    935.95  1253.12     0  02:03        1.95         3.2       0.009
  YS02001602           JUNCTION      0.00   518.29     0  01:55           0        2.22       0.013
  YS02001605           JUNCTION      0.00   518.47     0  01:55           0        2.12       0.018
  YS02001607           JUNCTION      0.00   518.41     0  01:55           0        2.12       0.088
  YS02001610           JUNCTION      0.00   520.68     0  01:54           0        2.14       0.095
  YS02001613           JUNCTION      0.00   522.30     0  01:55           0        1.81       0.080
  YS02001616           JUNCTION      0.00   521.83     0  01:54           0        1.81       0.019
  YS02001619           JUNCTION    914.48   921.11     0  01:58        2.23        4.02      -0.004
  YS02001622           JUNCTION      0.00   920.39     0  01:57           0        3.99      -0.006
  YS02001625           JUNCTION      0.00  1039.59     0  02:05           0        4.05       0.223
  YS02001629           JUNCTION      0.00   926.07     0  01:55           0        3.39       0.013
  YS02001633           JUNCTION    701.93  1375.44     0  01:58        1.42        4.74       0.066
  YS02001641           JUNCTION      0.00  1374.49     0  01:58           0        4.68       0.054
  YS02001644           JUNCTION    627.03  1787.31     0  01:58        1.23         5.9       0.055
  YS02001647           JUNCTION      0.00  1786.89     0  01:58           0        5.82       0.001
  YS02001649           JUNCTION      0.00  1994.59     0  01:58           0        6.93      -0.000
  YS02001652           JUNCTION      0.00   734.15     0  02:02           0        1.11      -0.096
  YS02001655           JUNCTION      0.00   733.05     0  02:02           0        1.11      -0.050
  YS02001658           JUNCTION      0.00   732.33     0  02:02           0        1.11      -0.028
  YS02001661           JUNCTION      0.00   773.60     0  02:01           0        1.11       0.012
  YS02001664           JUNCTION    609.05   609.05     0  02:02        1.11        1.11      -0.005
  YS02001745           JUNCTION    394.33   439.44     0  02:00       0.681       0.681       0.219
  YS02001748           JUNCTION      0.00   596.00     0  02:00           0        0.68      -0.359
  YS02001751           JUNCTION      0.00   469.77     0  02:01           0       0.689       0.066
  YS02001754           JUNCTION      0.00   470.25     0  02:01           0       0.695      -0.218
  YS02001757           JUNCTION      0.00  3276.85     0  02:01           0        9.99       0.026
  YS02001759           JUNCTION    546.20  1272.13     0  02:02       0.937        2.36      -0.016
  YS02001762           JUNCTION      0.00   749.34     0  02:03           0        1.43      -0.001
  YS02001765           JUNCTION      0.00   749.65     0  02:03           0        1.43       0.008
  YS02001767           JUNCTION      0.00   749.28     0  02:03           0        1.42      -0.014
  YS02001770           JUNCTION    768.91   768.91     0  02:02        1.43        1.48      -0.024
  YS02001774           JUNCTION      0.00   344.01     0  01:59           0      0.0715       1.327
  YS02001779           JUNCTION      0.00   349.21     0  01:59           0      0.0267      -2.142
  YS02001783           JUNCTION      0.00  1156.80     0  02:00           0        3.75      -0.002
  YS02001784           JUNCTION      0.00  1157.37     0  02:00           0        3.75       0.000
  YS02001786           JUNCTION      0.00  1156.99     0  02:00           0        3.75       0.004
  YS02001788           JUNCTION      0.00  1157.11     0  02:00           0        3.75       0.003
  YS02001790           JUNCTION      0.00  1171.55     0  02:00           0        3.75       0.021
  YS02001791           JUNCTION      0.00  1279.10     0  02:04           0        3.75      -0.032
  YS02001793           JUNCTION      0.00  1241.00     0  02:03           0        3.75       0.007
  YS02001882           JUNCTION      0.00    65.66     0  01:57           0      0.0125       2.310
  YS02001884           JUNCTION      0.00    84.21     0  01:57           0      0.0483       3.871
  YS02001887           JUNCTION    589.48   591.76     0  02:02       0.975        1.01       0.381
  YS02001890           JUNCTION      0.00   592.25     0  02:02           0       0.969       0.444
  YS02001895           JUNCTION      0.00   515.28     0  02:04           0       0.949       0.148
  YS02001898           JUNCTION      0.00   515.61     0  02:03           0       0.947      -0.050
  YS02001901           JUNCTION      0.00   515.52     0  02:04           0       0.948       0.255
  YS02001904           JUNCTION      0.00   515.57     0  02:04           0        0.95       0.229
  YS02001907           JUNCTION      0.00  1558.53     0  02:03           0        3.03       0.559
  YS02001910           JUNCTION      0.00  1043.87     0  02:03           0        2.08       0.298
  YS02001915           JUNCTION    681.03  1043.24     0  02:03        1.37        2.12       0.035
  YS02001918           JUNCTION      0.00   443.13     0  02:00           0       0.787      -0.036
  YS02001920           JUNCTION      0.00   443.22     0  02:00           0       0.768       0.024
  YS02001923           JUNCTION      0.00   411.37     0  02:00           0       0.751      -0.141
  YS02001926           JUNCTION      0.00   564.42     0  01:59           0       0.733      -0.114
  YS02001929           JUNCTION    329.72   410.95     0  01:59       0.719       0.722      -0.023
  YS02006553           JUNCTION      0.00   793.94     0  02:17           0        2.39       0.468
  YS02006556           JUNCTION      0.00   795.02     0  02:17           0         2.4       0.295
  YS02006558           JUNCTION    788.22  1175.30     0  01:58        1.42        3.79       0.088
  YS02006561           JUNCTION      0.00  1175.41     0  01:58           0        3.75      -0.008
  YS02163301           JUNCTION      0.00   921.53     0  01:57           0        3.38       0.036
  YS02163601           JUNCTION      0.00  1375.30     0  01:58           0        4.68       0.102
  YS02164001           JUNCTION      0.00  1375.20     0  01:58           0        4.67       0.042
  CC-1                 OUTFALL       0.00   683.00     0  02:02           0        2.97       0.000
  CC-2                 OUTFALL       0.00   683.00     0  02:07           0        2.16       0.000
  JK-1                 OUTFALL       0.00  1000.00     0  00:05           0        2.03       0.000
  JK-2                 OUTFALL       0.00  1000.00     0  00:05           0        1.74       0.000
  WSC                  OUTFALL       0.00   429.40     0  03:14           0        6.63       0.000
  CC-storage           STORAGE       0.00  3276.06     0  02:01           0        12.2      -0.240
  JK-storage           STORAGE       0.00  1237.74     0  02:08           0         3.9      -0.406
  
  
  **********************
  Node Surcharge Summary
  **********************
  
  Surcharging occurs when water rises above the top of the highest conduit.
  ---------------------------------------------------------------------
                                               Max. Height   Min. Depth
                                   Hours       Above Crown    Below Rim
  Node                 Type      Surcharged         Meters       Meters
  ---------------------------------------------------------------------
  WS02006109           JUNCTION        1.99          0.416        1.404
  WS02006110           JUNCTION        0.02          0.544        1.306
  WS02006111           JUNCTION        0.01          0.856        1.014
  WS02006112           JUNCTION        0.02          1.680        0.000
  WS02006113           JUNCTION        0.01          0.705        1.225
  WS02006115           JUNCTION        0.01          0.682        1.568
  WS02006116           JUNCTION        0.01          0.053        2.237
  WS02006228           JUNCTION        1.98          0.810        1.390
  WS02006229           JUNCTION        2.00          0.510        1.940
  WS02006230           JUNCTION        0.01          0.119        1.451
  WS02006231           JUNCTION        0.03          0.259        1.271
  WS02006232           JUNCTION        2.00          0.488        0.992
  WS02006234           JUNCTION        0.08          0.499        0.741
  WS02006235           JUNCTION        1.98          0.591        0.699
  WS02006238           JUNCTION        1.99          0.614        0.816
  WS02006239           JUNCTION        1.98          0.566        0.724
  WS02006240           JUNCTION        1.98          0.545        0.845
  WS02006242           JUNCTION        1.99          0.582        0.238
  WS02006243           JUNCTION        1.97          0.479        0.291
  WS02006245           JUNCTION        1.97          0.450        0.400
  WS02006247           JUNCTION        1.97          0.448        0.312
  WS02006248           JUNCTION        1.96          0.369        0.011
  WS02006249           JUNCTION        1.96          0.390        0.000
  WS02006251           JUNCTION        0.04          0.345        0.835
  WS02006252           JUNCTION        2.06          1.100        0.000
  WS02006256           JUNCTION        7.85          2.050        0.000
  YS02001580           JUNCTION        0.52          0.450        0.000
  YS02001583           JUNCTION        0.53          0.500        0.000
  YS02001586           JUNCTION        0.68          0.510        0.000
  YS02001590           JUNCTION        0.76          0.750        0.000
  YS02001593           JUNCTION        0.76          0.699        0.141
  YS02001596           JUNCTION        0.88          0.949        0.121
  YS02001600           JUNCTION        1.05          1.190        0.000
  YS02001601           JUNCTION        1.43          1.440        0.000
  YS02001602           JUNCTION        1.33          1.270        0.000
  YS02001605           JUNCTION        1.28          1.180        0.000
  YS02001607           JUNCTION        0.74          0.680        0.000
  YS02001610           JUNCTION        0.77          0.680        0.000
  YS02001613           JUNCTION        0.73          0.683        0.017
  YS02001616           JUNCTION        0.69          0.610        0.000
  YS02001619           JUNCTION        0.67          0.610        0.000
  YS02001622           JUNCTION        0.67          0.620        0.000
  YS02001625           JUNCTION        0.86          0.780        0.000
  YS02001629           JUNCTION        0.62          0.470        0.000
  YS02001633           JUNCTION        0.89          1.060        0.000
  YS02001641           JUNCTION        0.83          1.008        0.092
  YS02001644           JUNCTION        0.79          0.920        0.000
  YS02001647           JUNCTION        0.58          0.790        0.110
  YS02001649           JUNCTION        0.71          0.976        0.074
  YS02001652           JUNCTION        0.49          0.823        0.307
  YS02001655           JUNCTION        0.33          0.859        0.341
  YS02001658           JUNCTION        0.13          0.825        0.475
  YS02001661           JUNCTION        0.01          0.298        1.092
  YS02001748           JUNCTION        0.04          0.683        0.507
  YS02001751           JUNCTION        0.21          0.719        0.481
  YS02001754           JUNCTION        0.39          0.730        0.420
  YS02001757           JUNCTION        0.77          1.006        0.204
  YS02001759           JUNCTION        0.67          0.949        0.261
  YS02001762           JUNCTION        0.63          0.943        0.207
  YS02001765           JUNCTION        0.59          0.910        0.190
  YS02001767           JUNCTION        0.55          0.875        0.155
  YS02001770           JUNCTION        0.52          0.920        0.000
  YS02001774           JUNCTION        0.61          1.025        0.025
  YS02001779           JUNCTION        0.39          0.680        0.000
  YS02001783           JUNCTION        0.48          0.707        0.893
  YS02001784           JUNCTION        0.45          0.447        1.043
  YS02001786           JUNCTION        0.34          0.131        1.299
  YS02001882           JUNCTION        0.42          0.830        0.000
  YS02001884           JUNCTION        0.43          0.870        0.000
  YS02001887           JUNCTION        0.47          0.889        0.061
  YS02001890           JUNCTION        0.48          0.760        0.000
  YS02001895           JUNCTION        0.41          0.588        0.162
  YS02001898           JUNCTION        0.40          0.568        0.172
  YS02001901           JUNCTION        0.45          0.703        0.167
  YS02001904           JUNCTION        0.44          0.652        0.198
  YS02001907           JUNCTION        0.70          0.950        0.000
  YS02001910           JUNCTION        0.51          0.976        0.124
  YS02001915           JUNCTION        0.42          1.000        0.000
  YS02001918           JUNCTION        0.33          0.810        0.000
  YS02001920           JUNCTION        0.35          1.140        0.000
  YS02001923           JUNCTION        0.01          0.820        0.000
  YS02001926           JUNCTION        0.02          0.900        0.000
  YS02001929           JUNCTION        0.01          0.780        0.000
  YS02006553           JUNCTION        0.72          1.051        0.139
  YS02006556           JUNCTION        0.60          1.077        0.273
  YS02006558           JUNCTION        0.59          1.079        0.321
  YS02006561           JUNCTION        0.30          0.534        0.616
  YS02163301           JUNCTION        0.87          0.959        0.071
  YS02163601           JUNCTION        0.92          1.080        0.000
  YS02164001           JUNCTION        0.83          1.030        0.070
  
  
  *********************
  Node Flooding Summary
  *********************
  
  Flooding refers to all water that overflows a node, whether it ponds or not.
  --------------------------------------------------------------------------
                                                             Total   Maximum
                                 Maximum   Time of Max       Flood    Ponded
                        Hours       Rate    Occurrence      Volume     Depth
  Node                 Flooded       LPS   days hr:min    10^6 ltr    Meters
  --------------------------------------------------------------------------
  WS02006112              0.01   1405.86      0  00:00       0.047     0.000
  WS02006249              0.03     99.86      0  02:03       0.008     0.000
  WS02006252              0.01      0.91      0  01:58       0.000     0.000
  WS02006256              0.09    184.17      0  01:59       0.025     0.000
  YS02001580              0.01    127.64      0  01:55       0.000     0.000
  YS02001583              0.01     40.04      0  01:55       0.000     0.000
  YS02001586              0.38    199.15      0  02:05       0.151     0.000
  YS02001590              0.01     24.65      0  01:54       0.000     0.000
  YS02001600              0.01      0.72      0  01:56       0.000     0.000
  YS02001601              0.60    855.31      0  02:03       0.974     0.000
  YS02001602              0.50     61.95      0  02:20       0.097     0.000
  YS02001605              0.01      2.60      0  01:55       0.000     0.000
  YS02001607              0.01     27.75      0  01:55       0.000     0.000
  YS02001610              0.42    410.94      0  02:05       0.353     0.000
  YS02001616              0.01     56.77      0  01:55       0.000     0.000
  YS02001619              0.01     26.91      0  01:55       0.000     0.000
  YS02001622              0.01    107.02      0  01:55       0.000     0.000
  YS02001625              0.38   1039.16      0  02:05       0.706     0.000
  YS02001629              0.06    139.03      0  01:55       0.015     0.000
  YS02001633              0.01      2.62      0  01:59       0.000     0.000
  YS02001644              0.09    395.06      0  02:01       0.074     0.000
  YS02001770              0.01     17.78      0  02:00       0.000     0.000
  YS02001779              0.06    289.07      0  01:59       0.008     0.000
  YS02001882              0.01     15.49      0  01:57       0.000     0.000
  YS02001884              0.01     12.15      0  01:57       0.000     0.000
  YS02001890              0.09     83.45      0  02:01       0.016     0.000
  YS02001907              0.28   1165.31      0  02:03       0.644     0.000
  YS02001915              0.01     72.94      0  01:57       0.000     0.000
  YS02001918              0.01    181.82      0  01:59       0.002     0.000
  YS02001920              0.01     67.81      0  01:59       0.000     0.000
  YS02001923              0.01     47.88      0  01:59       0.000     0.000
  YS02001926              0.01    272.34      0  01:59       0.002     0.000
  YS02001929              0.01    102.51      0  01:59       0.000     0.000
  YS02163601              0.01      7.58      0  02:00       0.000     0.000
  
  
  **********************
  Storage Volume Summary
  **********************
  
  --------------------------------------------------------------------------------------------------
                         Average     Avg  Evap Exfil       Maximum     Max    Time of Max    Maximum
                          Volume    Pcnt  Pcnt  Pcnt        Volume    Pcnt     Occurrence    Outflow
  Storage Unit           1000 m3    Full  Loss  Loss       1000 m3    Full    days hr:min        LPS
  --------------------------------------------------------------------------------------------------
  CC-storage               2.155      34     0     0         4.518      70       0  02:28    1766.00
  JK-storage               0.068      23     0     0         0.213      73       0  02:00    2000.00
  
  
  ***********************
  Outfall Loading Summary
  ***********************
  
  -----------------------------------------------------------
                         Flow       Avg       Max       Total
                         Freq      Flow      Flow      Volume
  Outfall Node           Pcnt       LPS       LPS    10^6 ltr
  -----------------------------------------------------------
  CC-1                   8.67    683.00    683.00       2.970
  CC-2                   6.67    683.00    683.00       2.161
  JK-1                   5.50   1000.00   1000.00       2.030
  JK-2                   4.90   1000.00   1000.00       1.736
  WSC                  100.00    231.72    429.40       6.633
  -----------------------------------------------------------
  System                25.15   3597.72    429.40      15.530
  
  
  ********************
  Link Flow Summary
  ********************
  
  -----------------------------------------------------------------------------
                                 Maximum  Time of Max   Maximum    Max/    Max/
                                  |Flow|   Occurrence   |Veloc|    Full    Full
  Link                 Type          LPS  days hr:min     m/sec    Flow   Depth
  -----------------------------------------------------------------------------
  1                    CONDUIT    429.40     0  03:14      2.63    0.15    0.26
  WS02003060WS02003069 CONDUIT    427.44     0  02:21      1.54    0.17    0.29
  WS02003066WSF200     CONDUIT    410.90     0  02:20      2.67    0.07    0.19
  WS02003067WS02003066 CONDUIT    410.91     0  02:20      1.04    0.13    0.38
  WS02003069WS02003072 CONDUIT    427.61     0  02:21      1.26    0.21    0.34
  WS02003072WS02003073 CONDUIT    427.59     0  03:13      1.31    0.92    0.33
  WS02004401WS02004402 CONDUIT   1248.69     0  00:01      2.52    1.50    0.78
  WS02004402WS02004403 CONDUIT    929.44     0  00:01      2.21    1.34    0.81
  WS02004403WS02004404 CONDUIT    877.02     0  00:01      2.01    0.63    0.87
  WS02004404WS02004405 CONDUIT    827.31     0  00:01      2.30    8.11    0.89
  WS02004405WS02004406 CONDUIT    768.45     0  00:02      2.19    1.52    0.89
  WS02004406WS02004407 CONDUIT    421.64     0  02:07      0.90    0.19    0.57
  WS02004407WS02004409 CONDUIT    420.64     0  02:07      2.06    0.15    0.42
  WS02004409WS02004410 CONDUIT    411.42     0  02:47      1.39    0.53    0.58
  WS02004410WS02004411 CONDUIT    411.29     0  02:48      1.32    0.56    0.60
  WS02004411WS02004412 CONDUIT    411.06     0  02:35      1.30    0.58    0.61
  WS02004412WS02004413 CONDUIT    411.21     0  02:48      1.26    0.28    0.70
  WS02004413WS02003067 CONDUIT    410.88     0  02:20      0.96    0.18    0.53
  WS02006109WS02006110 CONDUIT   1446.81     0  00:00      2.88    2.78    1.00
  WS02006110WS02006113 CONDUIT    562.05     0  02:04      1.35    0.51    1.00
  WS02006111WS02006112 CONDUIT   2307.30     0  00:00      9.18    1.10    1.00
  WS02006112WS02006115 CONDUIT    953.54     0  00:00      1.24    0.56    1.00
  WS02006113WS02006111 CONDUIT   1180.41     0  00:00      2.45    1.41    1.00
  WS02006115WS02006116 CONDUIT   1264.47     0  00:00      1.74    1.62    1.00
  WS02006116WS02004401 CONDUIT   1786.04     0  00:00      2.94    2.46    0.77
  WS02006228WS02006109 CONDUIT    869.18     0  00:00      1.91    3.80    1.00
  WS02006229WS02006228 CONDUIT    549.51     0  02:04      1.09    1.82    1.00
  WS02006230WS02006229 CONDUIT    696.39     0  00:00      1.89   15.50    1.00
  WS02006231WS02006230 CONDUIT    538.93     0  02:03      1.91    8.17    1.00
  WS02006232WS02006231 CONDUIT    540.26     0  02:03      1.80    1.13    1.00
  WS02006234WS02006232 CONDUIT    540.79     0  02:03      1.41    1.09    1.00
  WS02006235WS02006234 CONDUIT    541.79     0  02:03      1.41    5.72    1.00
  WS02006238WS02006235 CONDUIT    422.03     0  02:05      1.10    0.94    1.00
  WS02006239WS02006238 CONDUIT    422.21     0  02:05      1.10    1.35    1.00
  WS02006240WS02006239 CONDUIT    421.55     0  02:05      1.10    1.33    1.00
  WS02006242WS02006240 CONDUIT    419.88     0  02:05      1.09    1.67    1.00
  WS02006243WS02006242 CONDUIT    419.40     0  02:05      1.16    0.90    1.00
  WS02006245WS02006243 CONDUIT    418.67     0  02:05      1.27    1.24    1.00
  WS02006247WS02006245 CONDUIT    418.74     0  02:05      1.24    3.32    1.00
  WS02006248WS02006247 CONDUIT    418.02     0  02:05      1.28    0.91    1.00
  WS02006249WS02006248 CONDUIT    417.49     0  02:05      1.31    2.29    1.00
  WS02006251WS02006249 CONDUIT    426.20     0  02:03      1.75    1.23    1.00
  WS02006252WS02006251 CONDUIT    406.79     0  02:03     18.36    1.49    1.00
  WS02006256WS02006235 CONDUIT    247.42     0  02:00      3.50    2.62    1.00
  WSF200WS02003060     CONDUIT    411.03     0  02:20      1.92    0.09    0.24
  YS02001580YS02001583 CONDUIT    137.97     0  01:55      0.66    0.53    1.00
  YS02001583YS02001586 CONDUIT    157.29     0  01:55      0.67    0.24    1.00
  YS02001586YS02001590 CONDUIT    318.45     0  02:02      1.25    0.56    1.00
  YS02001590YS02001593 CONDUIT    317.99     0  02:02      1.12    2.00    1.00
  YS02001593YS02001596 CONDUIT    317.97     0  02:02      1.73    0.50    1.00
  YS02001596YS02001600 CONDUIT    318.14     0  02:02      1.22    0.62    1.00
  YS02001600YS02001601 CONDUIT    317.87     0  01:59      1.12    0.55    1.00
  YS02001601YS02001602 CONDUIT    518.29     0  01:55      1.83    1.87    1.00
  YS02001602YS02001605 CONDUIT    518.47     0  01:55      1.83   10.97    1.00
  YS02001605YS02001607 CONDUIT    518.41     0  01:55      1.83    2.84    1.00
  YS02001607YS02001610 CONDUIT    520.68     0  01:54      0.66    0.50    1.00
  YS02001610YS02001613 CONDUIT    522.30     0  01:55      0.67    0.60    1.00
  YS02001613YS02001616 CONDUIT    521.83     0  01:54      0.67    0.45    1.00
  YS02001616YS02001619 CONDUIT    494.67     0  01:55      0.67    0.86    1.00
  YS02001619YS02001622 CONDUIT    920.39     0  01:57      1.18    1.36    1.00
  YS02001622YS02001625 CONDUIT    926.18     0  01:55      1.18    0.49    1.00
  YS02001625YS02001629 CONDUIT    926.07     0  01:55      1.19    0.44    1.00
  YS02001629YS02163301 CONDUIT    921.53     0  01:57      1.17    1.13    1.00
  YS02001633YS02163601 CONDUIT   1375.30     0  01:58      1.75    1.44    1.00
  YS02001641YS02001644 CONDUIT   1374.24     0  01:58      1.75    4.44    1.00
  YS02001644YS02001647 CONDUIT   1786.89     0  01:58      2.28    1.05    1.00
  YS02001647YS02001649 CONDUIT   1802.99     0  01:58      2.32    0.95    1.00
  YS02001649YS02001757 CONDUIT   1986.91     0  01:58      2.53    1.21    1.00
  YS02001652YS02001649 CONDUIT    735.62     0  02:02      0.94    0.36    1.00
  YS02001655YS02001652 CONDUIT    734.15     0  02:02      1.32    0.36    1.00
  YS02001658YS02001655 CONDUIT    733.05     0  02:02      1.90    0.31    1.00
  YS02001661YS02001658 CONDUIT    732.33     0  02:02      2.32    0.29    1.00
  YS02001664YS02001661 CONDUIT    773.60     0  02:01      2.32    0.24    0.77
  YS02001745YS02001748 CONDUIT    596.00     0  02:00      2.19    0.23    0.89
  YS02001748YS02001751 CONDUIT    469.77     0  02:01      1.70    0.24    1.00
  YS02001751YS02001754 CONDUIT    470.25     0  02:01      1.44    0.23    1.00
  YS02001754YS02001757 CONDUIT    470.47     0  02:01      0.60    0.19    1.00
  YS02001757CaochengTiaoxuchi CONDUIT   3276.06     0  02:01      4.17    1.42    1.00
  YS02001759YS02001757 CONDUIT   1273.13     0  02:02      1.62    0.90    1.00
  YS02001762YS02001759 CONDUIT    749.24     0  02:03      0.95    0.86    1.00
  YS02001765YS02001762 CONDUIT    749.34     0  02:03      0.95    0.70    1.00
  YS02001767YS02001765 CONDUIT    749.65     0  02:03      0.95    0.94    1.00
  YS02001770YS02001767 CONDUIT    749.28     0  02:03      0.95    2.97    1.00
  YS02001774YS02001770 CONDUIT    344.01     0  01:59      0.44    0.22    1.00
  YS02001779YS02001774 CONDUIT    349.21     0  01:59      0.45    0.18    1.00
  YS02001783YS02001784 CONDUIT   1157.37     0  02:00      2.30    1.60    1.00
  YS02001784YS02001785 CONDUIT   1156.99     0  02:00      2.30    2.69    1.00
  YS02001786YS02001788 CONDUIT   1157.11     0  02:00      2.47    2.23    0.89
  YS02001788YS02001790 CONDUIT   1171.55     0  02:00      2.72    0.86    0.84
  YS02001790YS02001791 CONDUIT   1279.10     0  02:04      3.41    1.39    0.70
  YS02001791YS02001793 CONDUIT   1241.00     0  02:03      6.77    0.53    0.44
  YS02001793JiankangQianchi CONDUIT   1237.74     0  02:08      2.49    0.10    0.65
  YS02001882YS02001884 CONDUIT     65.66     0  01:57      0.16    0.08    1.00
  YS02001884YS02001887 CONDUIT     84.21     0  01:57      0.11    0.11    1.00
  YS02001887YS02001890 CONDUIT    592.25     0  02:02      0.75    1.01    1.00
  YS02001890YS02001895 CONDUIT    515.28     0  02:04      0.66    0.24    1.00
  YS02001895YS02001898 CONDUIT    515.61     0  02:03      0.66    0.89    1.00
  YS02001898YS02001901 CONDUIT    515.52     0  02:04      0.66    0.33    1.00
  YS02001901YS02001904 CONDUIT    515.57     0  02:04      0.66    0.80    1.00
  YS02001904YS02001907 CONDUIT    515.20     0  02:04      0.66    0.18    1.00
  YS02001907YS02006553 CONDUIT    793.94     0  02:17      0.88    0.93    1.00
  YS02001910YS02001907 CONDUIT   1043.84     0  02:03      1.33    0.59    1.00
  YS02001915YS02001910 CONDUIT   1043.87     0  02:03      1.33    0.52    1.00
  YS02001918YS02001915 CONDUIT    444.63     0  02:00      0.57    0.25    1.00
  YS02001920YS02001918 CONDUIT    443.13     0  02:00      0.63    0.43    1.00
  YS02001923YS02001920 CONDUIT    443.22     0  02:00      0.70    0.20    1.00
  YS02001926YS02001923 CONDUIT    420.46     0  01:59      0.96    0.60    1.00
  YS02001929YS02001926 CONDUIT    409.38     0  02:00      1.13    0.19    1.00
  YS02006553YS02006556 CONDUIT    795.02     0  02:17      1.01    0.68    1.00
  YS02006556YS02006558 CONDUIT    798.03     0  02:17      1.02    0.63    1.00
  YS02006558YS02006561 CONDUIT   1175.41     0  01:58      4.16    2.60    1.00
  YS02006561YS02001783 CONDUIT   1156.80     0  02:00      2.30    0.60    1.00
  YS02163301YS02001633 CONDUIT    921.92     0  01:57      1.17    0.87    1.00
  YS02163601YS02164001 CONDUIT   1375.20     0  01:58      1.75    1.22    1.00
  YS02164001YS02001641 CONDUIT   1374.49     0  01:58      1.75    1.88    1.00
  CC-R1                PUMP       683.00     0  02:02              1.00
  CC-R2                PUMP       683.00     0  02:07              1.00
  CC-S1                PUMP       200.00     0  00:05              1.00
  CC-S2                PUMP       200.00     0  01:58              1.00
  JK-R1                PUMP      1000.00     0  00:05              1.00
  JK-R2                PUMP      1000.00     0  00:05              1.00
  JK-S                 PUMP       300.00     0  01:59              1.00
  
  
  ***************************
  Flow Classification Summary
  ***************************
  
  -------------------------------------------------------------------------------------
                      Adjusted    ---------- Fraction of Time in Flow Class ---------- 
                       /Actual         Up    Down  Sub   Sup   Up    Down  Norm  Inlet 
  Conduit               Length    Dry  Dry   Dry   Crit  Crit  Crit  Crit  Ltd   Ctrl  
  -------------------------------------------------------------------------------------
  1                       1.00   0.00  0.00  0.00  0.00  1.00  0.00  0.00  0.16  0.00
  WS02003060WS02003069    1.00   0.00  0.00  0.00  0.99  0.01  0.00  0.00  0.63  0.00
  WS02003066WSF200        1.00   0.02  0.00  0.00  0.00  0.98  0.00  0.00  0.97  0.00
  WS02003067WS02003066    1.00   0.01  0.01  0.00  0.98  0.00  0.00  0.00  0.00  0.00
  WS02003069WS02003072    1.00   0.00  0.00  0.00  1.00  0.00  0.00  0.00  0.73  0.00
  WS02003072WS02003073    1.00   0.00  0.00  0.00  0.00  0.00  0.00  1.00  0.00  0.00
  WS02004401WS02004402    1.00   0.00  0.00  0.00  1.00  0.00  0.00  0.00  0.00  0.00
  WS02004402WS02004403    1.00   0.00  0.00  0.00  1.00  0.00  0.00  0.00  0.00  0.00
  WS02004403WS02004404    1.00   0.00  0.00  0.00  1.00  0.00  0.00  0.00  0.00  0.00
  WS02004404WS02004405    1.00   0.00  0.00  0.00  1.00  0.00  0.00  0.00  0.02  0.00
  WS02004405WS02004406    1.00   0.00  0.00  0.00  1.00  0.00  0.00  0.00  0.00  0.00
  WS02004406WS02004407    1.00   0.00  0.00  0.00  1.00  0.00  0.00  0.00  0.00  0.00
  WS02004407WS02004409    1.00   0.00  0.00  0.00  1.00  0.00  0.00  0.00  0.99  0.00
  WS02004409WS02004410    1.00   0.00  0.00  0.00  1.00  0.00  0.00  0.00  0.00  0.00
  WS02004410WS02004411    1.00   0.00  0.00  0.00  1.00  0.00  0.00  0.00  0.00  0.00
  WS02004411WS02004412    1.00   0.00  0.00  0.00  1.00  0.00  0.00  0.00  0.00  0.00
  WS02004412WS02004413    1.00   0.00  0.00  0.00  0.99  0.00  0.00  0.00  0.00  0.00
  WS02004413WS02003067    1.00   0.00  0.01  0.00  0.00  0.00  0.99  0.00  0.00  0.00
  WS02006109WS02006110    1.00   0.00  0.00  0.00  1.00  0.00  0.00  0.00  0.00  0.00
  WS02006110WS02006113    1.00   0.00  0.00  0.00  1.00  0.00  0.00  0.00  0.00  0.00
  WS02006111WS02006112    1.00   0.00  0.00  0.00  1.00  0.00  0.00  0.00  1.00  0.00
  WS02006112WS02006115    1.00   0.00  0.00  0.00  1.00  0.00  0.00  0.00  0.00  0.00
  WS02006113WS02006111    1.00   0.00  0.00  0.00  0.00  1.00  0.00  0.00  0.20  0.00
  WS02006115WS02006116    1.00   0.00  0.00  0.00  1.00  0.00  0.00  0.00  0.00  0.00
  WS02006116WS02004401    1.00   0.00  0.00  0.00  1.00  0.00  0.00  0.00  0.00  0.00
  WS02006228WS02006109    1.00   0.00  0.00  0.00  1.00  0.00  0.00  0.00  0.00  0.00
  WS02006229WS02006228    1.00   0.00  0.00  0.00  1.00  0.00  0.00  0.00  0.00  0.00
  WS02006230WS02006229    1.00   0.00  0.00  0.00  1.00  0.00  0.00  0.00  0.00  0.00
  WS02006231WS02006230    1.00   0.00  0.00  0.00  0.15  0.00  0.85  0.00  0.00  0.00
  WS02006232WS02006231    1.00   0.00  0.00  0.00  1.00  0.00  0.00  0.00  0.00  0.00
  WS02006234WS02006232    1.00   0.00  0.00  0.00  1.00  0.00  0.00  0.00  0.00  0.00
  WS02006235WS02006234    1.00   0.00  0.00  0.00  0.98  0.00  0.02  0.00  0.00  0.00
  WS02006238WS02006235    1.00   0.00  0.00  0.00  1.00  0.00  0.00  0.00  0.00  0.00
  WS02006239WS02006238    1.00   0.00  0.00  0.00  1.00  0.00  0.00  0.00  0.00  0.00
  WS02006240WS02006239    1.00   0.01  0.00  0.00  0.94  0.00  0.00  0.05  0.00  0.00
  WS02006242WS02006240    1.00   0.01  0.00  0.00  0.98  0.00  0.01  0.00  0.00  0.00
  WS02006243WS02006242    1.00   0.01  0.00  0.00  0.98  0.00  0.00  0.01  0.23  0.00
  WS02006245WS02006243    1.00   0.01  0.00  0.00  0.97  0.00  0.00  0.03  0.00  0.00
  WS02006247WS02006245    1.00   0.00  0.00  0.00  0.98  0.00  0.00  0.01  0.00  0.00
  WS02006248WS02006247    1.00   0.00  0.00  0.00  0.99  0.00  0.00  0.01  0.23  0.00
  WS02006249WS02006248    1.00   0.00  0.00  0.00  0.93  0.00  0.07  0.00  0.00  0.00
  WS02006251WS02006249    1.00   0.00  0.00  0.00  0.99  0.00  0.00  0.00  0.20  0.00
  WS02006252WS02006251    1.00   0.00  0.05  0.00  0.00  0.00  0.94  0.00  0.00  0.00
  WS02006256WS02006235    1.00   0.00  0.00  0.00  1.00  0.00  0.00  0.00  0.00  0.00
  WSF200WS02003060        1.00   0.00  0.02  0.00  0.03  0.95  0.00  0.00  0.47  0.00
  YS02001580YS02001583    1.00   0.35  0.53  0.00  0.12  0.00  0.00  0.00  0.67  0.00
  YS02001583YS02001586    1.00   0.35  0.51  0.00  0.14  0.00  0.00  0.00  0.67  0.00
  YS02001586YS02001590    1.00   0.19  0.00  0.00  0.39  0.07  0.00  0.35  0.37  0.00
  YS02001590YS02001593    1.00   0.19  0.01  0.00  0.09  0.00  0.70  0.00  0.00  0.00
  YS02001593YS02001596    1.00   0.21  0.00  0.00  0.11  0.01  0.00  0.68  0.02  0.00
  YS02001596YS02001600    1.00   0.21  0.00  0.00  0.17  0.01  0.00  0.61  0.05  0.00
  YS02001600YS02001601    1.00   0.20  0.01  0.00  0.79  0.00  0.00  0.00  0.60  0.00
  YS02001601YS02001602    1.00   0.19  0.01  0.00  0.79  0.00  0.00  0.00  0.00  0.00
  YS02001602YS02001605    1.00   0.21  0.00  0.00  0.79  0.00  0.00  0.00  0.00  0.00
  YS02001605YS02001607    1.00   0.21  0.00  0.00  0.79  0.00  0.00  0.00  0.00  0.00
  YS02001607YS02001610    1.00   0.20  0.01  0.00  0.79  0.00  0.00  0.00  0.01  0.00
  YS02001610YS02001613    1.00   0.20  0.00  0.00  0.80  0.00  0.00  0.00  0.00  0.00
  YS02001613YS02001616    1.00   0.20  0.00  0.00  0.80  0.00  0.00  0.00  0.00  0.00
  YS02001616YS02001619    1.00   0.19  0.00  0.00  0.81  0.00  0.00  0.00  0.00  0.00
  YS02001619YS02001622    1.00   0.19  0.00  0.00  0.81  0.00  0.00  0.00  0.29  0.00
  YS02001622YS02001625    1.00   0.19  0.00  0.00  0.81  0.00  0.00  0.00  0.04  0.00
  YS02001625YS02001629    1.00   0.20  0.06  0.00  0.13  0.00  0.61  0.00  0.00  0.00
  YS02001629YS02163301    1.00   0.24  0.02  0.00  0.75  0.00  0.00  0.00  0.00  0.00
  YS02001633YS02163601    1.00   0.20  0.00  0.00  0.80  0.00  0.00  0.00  0.01  0.00
  YS02001641YS02001644    1.00   0.19  0.01  0.00  0.80  0.00  0.00  0.00  0.00  0.00
  YS02001644YS02001647    1.00   0.19  0.06  0.00  0.74  0.00  0.00  0.00  0.00  0.00
  YS02001647YS02001649    1.00   0.22  0.03  0.00  0.40  0.34  0.00  0.00  0.55  0.00
  YS02001649YS02001757    1.00   0.00  0.22  0.00  0.50  0.28  0.00  0.00  0.16  0.00
  YS02001652YS02001649    1.00   0.22  0.00  0.00  0.74  0.04  0.00  0.00  0.60  0.00
  YS02001655YS02001652    1.00   0.22  0.00  0.00  0.14  0.01  0.00  0.63  0.06  0.00
  YS02001658YS02001655    1.00   0.22  0.00  0.00  0.59  0.19  0.00  0.00  0.68  0.00
  YS02001661YS02001658    1.00   0.22  0.00  0.00  0.39  0.39  0.00  0.00  0.70  0.00
  YS02001664YS02001661    1.00   0.19  0.00  0.00  0.68  0.13  0.00  0.00  0.86  0.00
  YS02001745YS02001748    1.00   0.19  0.00  0.00  0.06  0.01  0.00  0.74  0.05  0.00
  YS02001748YS02001751    1.00   0.19  0.00  0.00  0.61  0.19  0.00  0.00  0.65  0.00
  YS02001751YS02001754    1.00   0.20  0.00  0.00  0.11  0.01  0.00  0.69  0.04  0.00
  YS02001754YS02001757    1.00   0.00  0.20  0.00  0.77  0.03  0.00  0.00  0.65  0.00
  YS02001757CaochengTiaoxuchi    1.00   0.00  0.00  0.00  0.96  0.04  0.00  0.00  0.62  0.00
  YS02001759YS02001757    1.00   0.00  0.19  0.00  0.77  0.03  0.00  0.00  0.45  0.00
  YS02001762YS02001759    1.00   0.19  0.01  0.00  0.80  0.00  0.00  0.00  0.05  0.00
  YS02001765YS02001762    1.00   0.20  0.00  0.00  0.80  0.00  0.00  0.00  0.52  0.00
  YS02001767YS02001765    1.00   0.20  0.00  0.00  0.80  0.00  0.00  0.00  0.01  0.00
  YS02001770YS02001767    1.00   0.19  0.00  0.00  0.81  0.00  0.00  0.00  0.00  0.00
  YS02001774YS02001770    1.00   0.21  0.00  0.00  0.70  0.00  0.09  0.00  0.02  0.00
  YS02001779YS02001774    1.00   0.21  0.56  0.00  0.23  0.00  0.00  0.00  0.60  0.00
  YS02001783YS02001784    1.00   0.27  0.00  0.00  0.73  0.00  0.00  0.00  0.56  0.00
  YS02001784YS02001785    1.00   0.27  0.00  0.00  0.73  0.00  0.00  0.00  0.37  0.00
  YS02001786YS02001788    1.00   0.27  0.00  0.00  0.57  0.17  0.00  0.00  0.00  0.00
  YS02001788YS02001790    1.00   0.27  0.00  0.00  0.14  0.60  0.00  0.00  0.62  0.00
  YS02001790YS02001791    1.00   0.27  0.00  0.00  0.01  0.72  0.00  0.00  0.16  0.00
  YS02001791YS02001793    1.00   0.27  0.00  0.00  0.00  0.72  0.00  0.00  0.01  0.00
  YS02001793JiankangQianchi    1.00   0.00  0.28  0.00  0.71  0.02  0.00  0.00  0.79  0.00
  YS02001882YS02001884    1.00   0.25  0.00  0.00  0.75  0.00  0.00  0.00  0.00  0.00
  YS02001884YS02001887    1.00   0.21  0.01  0.00  0.77  0.00  0.00  0.00  0.00  0.00
  YS02001887YS02001890    1.00   0.19  0.01  0.00  0.78  0.00  0.02  0.00  0.00  0.00
  YS02001890YS02001895    1.00   0.20  0.05  0.00  0.75  0.00  0.00  0.00  0.00  0.00
  YS02001895YS02001898    1.00   0.25  0.00  0.00  0.73  0.00  0.02  0.00  0.00  0.00
  YS02001898YS02001901    1.00   0.25  0.00  0.00  0.74  0.00  0.00  0.00  0.01  0.00
  YS02001901YS02001904    1.00   0.25  0.00  0.00  0.74  0.00  0.00  0.00  0.00  0.00
  YS02001904YS02001907    1.00   0.20  0.06  0.00  0.74  0.00  0.00  0.00  0.00  0.00
  YS02001907YS02006553    1.00   0.20  0.03  0.00  0.78  0.00  0.00  0.00  0.01  0.00
  YS02001910YS02001907    1.00   0.19  0.00  0.00  0.77  0.00  0.00  0.03  0.02  0.00
  YS02001915YS02001910    1.00   0.19  0.00  0.00  0.76  0.05  0.00  0.00  0.01  0.00
  YS02001918YS02001915    1.00   0.19  0.06  0.00  0.75  0.00  0.00  0.00  0.72  0.00
  YS02001920YS02001918    1.00   0.22  0.03  0.00  0.75  0.00  0.00  0.00  0.00  0.00
  YS02001923YS02001920    1.00   0.22  0.00  0.00  0.78  0.00  0.00  0.00  0.78  0.00
  YS02001926YS02001923    1.00   0.19  0.03  0.00  0.04  0.00  0.74  0.00  0.00  0.00
  YS02001929YS02001926    1.00   0.19  0.00  0.00  0.81  0.00  0.00  0.00  0.82  0.00
  YS02006553YS02006556    1.00   0.21  0.00  0.00  0.79  0.00  0.00  0.00  0.01  0.00
  YS02006556YS02006558    1.00   0.19  0.01  0.00  0.80  0.00  0.00  0.00  0.00  0.00
  YS02006558YS02006561    1.00   0.27  0.00  0.00  0.03  0.70  0.00  0.00  0.18  0.00
  YS02006561YS02001783    1.00   0.27  0.00  0.00  0.09  0.64  0.00  0.00  0.68  0.00
  YS02163301YS02001633    1.00   0.19  0.04  0.00  0.77  0.00  0.00  0.00  0.00  0.00
  YS02163601YS02164001    1.00   0.20  0.02  0.00  0.78  0.00  0.00  0.00  0.01  0.00
  YS02164001YS02001641    1.00   0.20  0.02  0.00  0.78  0.00  0.00  0.00  0.00  0.00
  
  
  *************************
  Conduit Surcharge Summary
  *************************
  
  ----------------------------------------------------------------------------
                                                           Hours        Hours 
                         --------- Hours Full --------   Above Full   Capacity
  Conduit                Both Ends  Upstream  Dnstream   Normal Flow   Limited
  ----------------------------------------------------------------------------
  WS02004401WS02004402        0.01      0.01      0.01      0.01         0.01
  WS02004402WS02004403        0.01      0.01      0.01      0.02         0.01
  WS02004404WS02004405        0.01      0.01      0.01      6.01         0.01
  WS02004405WS02004406        0.01      0.01      0.01      0.01         0.01
  WS02006109WS02006110        0.02      0.02      2.02      0.03         0.01
  WS02006110WS02006113        0.01      0.01      2.00      0.01         0.01
  WS02006111WS02006112        0.01      0.01      2.17      0.01         0.01
  WS02006112WS02006115        0.01      0.01      0.01      0.01         0.01
  WS02006113WS02006111        0.01      0.01      0.01      0.01         0.01
  WS02006115WS02006116        0.01      0.01      0.01      0.01         0.01
  WS02006116WS02004401        0.01      0.01      0.01      0.02         0.01
  WS02006228WS02006109        1.98      2.01      1.99      2.21         1.98
  WS02006229WS02006228        1.98      1.99      1.98      2.08         1.98
  WS02006230WS02006229        2.02      2.07      2.04      6.20         2.02
  WS02006231WS02006230        0.01      0.01      0.03      6.00         0.01
  WS02006232WS02006231        0.03      0.03      2.00      0.05         0.01
  WS02006234WS02006232        1.97      1.97      2.00      0.04         0.05
  WS02006235WS02006234        0.08      0.08      1.98      5.84         0.01
  WS02006238WS02006235        1.99      1.99      2.00      0.01         0.01
  WS02006239WS02006238        1.99      2.00      1.99      1.99         1.97
  WS02006240WS02006239        1.98      1.98      1.98      1.98         1.96
  WS02006242WS02006240        1.98      1.98      2.00      2.07         0.01
  WS02006243WS02006242        1.97      1.97      1.99      0.01         0.01
  WS02006245WS02006243        1.97      1.97      1.97      1.96         1.94
  WS02006247WS02006245        1.97      1.97      1.97      5.82         1.97
  WS02006248WS02006247        1.96      1.96      1.97      0.01         0.01
  WS02006249WS02006248        1.96      1.96      1.96      5.78         0.01
  WS02006251WS02006249        1.95      1.95      1.96      2.01         1.95
  WS02006252WS02006251        2.02      2.02      2.05      2.02         0.01
  WS02006256WS02006235        5.89      5.89      7.85      0.09         0.01
  YS02001580YS02001583        0.52      0.52      0.58      0.01         0.01
  YS02001583YS02001586        0.53      0.53      0.68      0.01         0.01
  YS02001586YS02001590        0.69      0.69      0.76      0.01         0.01
  YS02001590YS02001593        0.76      0.76      0.78      0.80         0.01
  YS02001593YS02001596        0.77      0.77      0.88      0.01         0.01
  YS02001596YS02001600        0.93      0.93      1.05      0.01         0.01
  YS02001600YS02001601        1.12      1.12      1.43      0.01         0.01
  YS02001601YS02001602        1.33      1.33      1.47      1.06         0.01
  YS02001602YS02001605        1.28      1.28      1.33      2.25         0.01
  YS02001605YS02001607        1.22      1.28      1.22      1.40         1.22
  YS02001607YS02001610        0.74      0.74      0.77      0.01         0.01
  YS02001610YS02001613        0.73      0.73      0.77      0.01         0.01
  YS02001613YS02001616        0.69      0.69      0.73      0.01         0.01
  YS02001616YS02001619        0.67      0.67      0.69      0.01         0.01
  YS02001619YS02001622        0.67      0.67      0.67      0.77         0.65
  YS02001622YS02001625        0.67      0.67      0.86      0.01         0.01
  YS02001625YS02001629        0.62      0.62      0.86      0.01         0.01
  YS02001629YS02163301        0.86      0.86      0.87      0.10         0.15
  YS02001633YS02163601        0.89      0.89      0.92      0.37         0.35
  YS02001641YS02001644        0.79      0.83      0.79      1.51         0.78
  YS02001644YS02001647        0.58      0.58      0.79      0.03         0.01
  YS02001647YS02001649        0.58      0.58      0.71      0.01         0.01
  YS02001649YS02001757        0.70      0.71      0.77      0.08         0.04
  YS02001652YS02001649        0.52      0.52      0.71      0.01         0.01
  YS02001655YS02001652        0.33      0.33      0.49      0.01         0.01
  YS02001658YS02001655        0.13      0.13      0.33      0.01         0.01
  YS02001661YS02001658        0.01      0.01      0.13      0.01         0.01
  YS02001664YS02001661        0.01      0.01      0.01      0.01         0.01
  YS02001745YS02001748        0.01      0.01      0.04      0.01         0.01
  YS02001748YS02001751        0.11      0.11      0.21      0.01         0.01
  YS02001751YS02001754        0.21      0.21      0.39      0.01         0.01
  YS02001754YS02001757        0.44      0.44      0.77      0.01         0.01
  YS02001757CaochengTiaoxuchi        0.76      0.77      1.94      0.31         0.28
  YS02001759YS02001757        0.67      0.67      0.77      0.01         0.01
  YS02001762YS02001759        0.63      0.63      0.67      0.01         0.02
  YS02001765YS02001762        0.59      0.59      0.63      0.01         0.01
  YS02001767YS02001765        0.55      0.55      0.59      0.01         0.03
  YS02001770YS02001767        0.54      0.54      0.55      0.48         0.38
  YS02001774YS02001770        0.52      0.52      0.61      0.01         0.01
  YS02001779YS02001774        0.39      0.39      0.61      0.01         0.01
  YS02001783YS02001784        0.45      0.48      0.45      0.63         0.45
  YS02001784YS02001785        0.34      0.45      0.34      0.89         0.34
  YS02001786YS02001788        0.01      0.34      0.01      0.74         0.01
  YS02001790YS02001791        0.01      0.01      0.01      0.44         0.01
  YS02001793JiankangQianchi        0.01      0.01      6.46      0.01         0.01
  YS02001882YS02001884        0.42      0.42      0.43      0.01         0.01
  YS02001884YS02001887        0.45      0.45      0.47      0.01         0.01
  YS02001887YS02001890        0.48      0.48      0.49      0.02         0.01
  YS02001890YS02001895        0.41      0.41      0.51      0.01         0.01
  YS02001895YS02001898        0.40      0.40      0.41      0.01         0.01
  YS02001898YS02001901        0.41      0.41      0.45      0.01         0.01
  YS02001901YS02001904        0.44      0.44      0.45      0.01         0.01
  YS02001904YS02001907        0.44      0.44      0.72      0.01         0.01
  YS02001907YS02006553        0.90      0.90      0.98      0.01         0.01
  YS02001910YS02001907        0.51      0.51      0.70      0.01         0.01
  YS02001915YS02001910        0.42      0.42      0.51      0.01         0.01
  YS02001918YS02001915        0.33      0.33      0.42      0.01         0.01
  YS02001920YS02001918        0.33      0.33      0.35      0.01         0.01
  YS02001923YS02001920        0.29      0.29      0.35      0.01         0.01
  YS02001926YS02001923        0.01      0.01      0.02      0.01         0.01
  YS02001929YS02001926        0.01      0.01      0.02      0.01         0.01
  YS02006553YS02006556        0.60      0.60      0.72      0.01         0.01
  YS02006556YS02006558        0.65      0.65      0.73      0.01         0.01
  YS02006558YS02006561        0.37      0.59      0.37      0.84         0.37
  YS02006561YS02001783        0.30      0.30      0.48      0.01         0.01
  YS02163301YS02001633        0.87      0.87      0.91      0.01         0.01
  YS02163601YS02164001        0.83      0.83      0.92      0.07         0.01
  YS02164001YS02001641        0.83      0.83      0.83      0.75         0.68
  
  
  ***************
  Pumping Summary
  ***************
  
  ---------------------------------------------------------------------------------------------------------
                                                  Min       Avg       Max     Total     Power    % Time Off
                        Percent   Number of      Flow      Flow      Flow    Volume     Usage    Pump Curve
  Pump                 Utilized   Start-Ups       LPS       LPS       LPS  10^6 ltr     Kw-hr    Low   High
  ---------------------------------------------------------------------------------------------------------
  CC-R1                   15.10           1      0.00    683.00    683.00     2.970     56.28    0.0    0.0
  CC-R2                   10.98           1      0.00    683.00    683.00     2.160     41.35    0.0    0.0
  CC-S1                   74.05          26      0.00    200.00    200.00     4.265     26.29    0.0    0.0
  CC-S2                   25.22           1      0.00    200.00    200.00     1.453      7.96    0.0    0.0
  JK-R1                    7.07          48      0.00   1000.00   1000.00     2.037     17.99    0.0    0.0
  JK-R2                    6.05          48      0.00   1000.00   1000.00     1.743     14.24    0.0    0.0
  JK-S                     1.08           1      0.00    300.00    300.00     0.093      1.16    0.0    0.0
  

  Analysis begun on:  Fri Sep  8 22:11:44 2023
  Analysis ended on:  Fri Sep  8 22:11:58 2023
  Total elapsed time: 00:00:14