
  OWA STORM WATER MANAGEMENT MODEL - VERSION v5.1.14 (OWA 2022-07-31)
  --------------------------------------------------------------

  WARNING 04: minimum elevation drop used for Conduit WS02004404WS02004405
  WARNING 03: negative offset ignored for Link YS02001904YS02001907
  
  *********************************************************
  NOTE: The summary statistics displayed in this report are
  based on results found at every computational time step,  
  not just on results from each reporting time step.
  *********************************************************
  
  ****************
  Analysis Options
  ****************
  Flow Units ............... LPS
  Process Models:
    Rainfall/Runoff ........ YES
    RDII ................... NO
    Snowmelt ............... NO
    Groundwater ............ NO
    Flow Routing ........... YES
    Ponding Allowed ........ NO
    Water Quality .......... NO
  Infiltration Method ...... HORTON
  Flow Routing Method ...... DYNWAVE
  Surcharge Method ......... EXTRAN
  Starting Date ............ 08/28/2015 08:00:00
  Ending Date .............. 08/28/2015 16:00:00
  Antecedent Dry Days ...... 8.0
  Report Time Step ......... 00:01:00
  Wet Time Step ............ 00:01:00
  Dry Time Step ............ 00:01:00
  Routing Time Step ........ 30.00 sec
  Variable Time Step ....... YES
  Maximum Trials ........... 8
  Number of Threads ........ 1
  Head Tolerance ........... 0.001500 m
  
  
  **************************        Volume         Depth
  Runoff Quantity Continuity     hectare-m            mm
  **************************     ---------       -------
  Total Precipitation ......         1.436        43.293
  Evaporation Loss .........         0.000         0.000
  Infiltration Loss ........         0.095         2.878
  Surface Runoff ...........         1.308        39.429
  Final Storage ............         0.033         0.994
  Continuity Error (%) .....        -0.017
  
  
  **************************        Volume        Volume
  Flow Routing Continuity        hectare-m      10^6 ltr
  **************************     ---------     ---------
  Dry Weather Inflow .......         0.000         0.000
  Wet Weather Inflow .......         1.309        13.085
  Groundwater Inflow .......         0.000         0.000
  RDII Inflow ..............         0.000         0.000
  External Inflow ..........         0.083         0.834
  External Outflow .........         1.317        13.168
  Flooding Loss ............         0.169         1.692
  Evaporation Loss .........         0.000         0.000
  Exfiltration Loss ........         0.000         0.000
  Initial Stored Volume ....         0.243         2.431
  Final Stored Volume ......         0.181         1.808
  Continuity Error (%) .....        -1.947
  
  
  *************************
  Highest Continuity Errors
  *************************
  Node YS02001583 (-4.68%)
  Node YS02001884 (3.86%)
  Node YS02001774 (1.71%)
  
  
  ***************************
  Time-Step Critical Elements
  ***************************
  Link WS02006252WS02006251 (82.41%)
  Link WS02006235WS02006234 (5.67%)
  Link WS02004404WS02004405 (3.23%)
  Link YS02001791YS02001793 (1.98%)
  Link WS02003066WSF200 (1.91%)
  
  
  ********************************
  Highest Flow Instability Indexes
  ********************************
  Link WS02006113WS02006111 (54)
  Link WS02006111WS02006112 (28)
  Link WS02006256WS02006235 (10)
  Link WS02006110WS02006113 (7)
  Link YS02006558YS02006561 (4)
  
  
  *************************
  Routing Time Step Summary
  *************************
  Minimum Time Step           :     0.01 sec
  Average Time Step           :     1.11 sec
  Maximum Time Step           :    30.00 sec
  Percent in Steady State     :    -0.00
  Average Iterations per Step :     2.36
  Percent Not Converging      :     4.21
  
  
  ***************************
  Subcatchment Runoff Summary
  ***************************
  
  ------------------------------------------------------------------------------------------------------------------------------
                            Total      Total      Total      Total     Imperv       Perv      Total       Total     Peak  Runoff
                           Precip      Runon       Evap      Infil     Runoff     Runoff     Runoff      Runoff   Runoff   Coeff
  Subcatchment                 mm         mm         mm         mm         mm         mm         mm    10^6 ltr      LPS
  ------------------------------------------------------------------------------------------------------------------------------
  sub60                     43.29       0.00       0.00       1.74      36.89       3.46      40.35        0.53   336.19   0.932
  sub61                     43.29       0.00       0.00       2.52      34.80       4.84      39.64        0.73   465.03   0.916
  sub62                     43.29       0.00       0.00       1.16      38.54       2.31      40.84        1.12   658.62   0.943
  sub63                     43.29       0.00       0.00       4.67      29.76       7.89      37.66        0.85   517.85   0.870
  sub64                     43.29       0.00       0.00       2.36      35.59       4.14      39.73        0.95   531.82   0.918
  sub65                     43.29       0.00       0.00       2.04      36.41       3.59      40.00        1.10   593.11   0.924
  sub66                     43.29       0.00       0.00       5.73      29.66       6.83      36.49        1.70   763.35   0.843
  sub67                     43.29       0.00       0.00       1.12      38.58       2.35      40.93        0.76   510.15   0.945
  sub68                     43.29       0.00       0.00       2.09      36.04       3.97      40.01        1.10   673.24   0.924
  sub69                     43.29       0.00       0.00       1.85      36.68       4.65      41.33        1.53   791.44   0.955
  sub70                     43.29       0.00       0.00       6.09      28.41       8.63      37.04        1.07   431.21   0.856
  sub71                     43.29       0.00       0.00       1.19      38.50       2.27      40.77        1.07   577.50   0.942
  sub72                     43.29       0.00       0.00       1.06      38.86       1.97      40.83        0.56   278.98   0.943
  
  
  ******************
  Node Depth Summary
  ******************
  
  ---------------------------------------------------------------------------------
                                 Average  Maximum  Maximum  Time of Max    Reported
                                   Depth    Depth      HGL   Occurrence   Max Depth
  Node                 Type       Meters   Meters   Meters  days hr:min      Meters
  ---------------------------------------------------------------------------------
  WS02003060           JUNCTION     0.23     0.33     5.27     0  02:41        0.33
  WS02003066           JUNCTION     0.20     0.27     5.82     0  02:41        0.27
  WS02003067           JUNCTION     0.51     0.65     5.97     0  02:41        0.65
  WS02003069           JUNCTION     0.26     0.37     4.96     0  02:42        0.37
  WS02003072           JUNCTION     0.32     0.44     4.82     0  02:52        0.44
  WS02003073           JUNCTION     0.18     0.26     4.33     0  02:53        0.26
  WS02004401           JUNCTION     0.58     0.76     6.76     0  00:01        0.76
  WS02004402           JUNCTION     0.62     0.78     6.74     0  02:38        0.78
  WS02004403           JUNCTION     0.64     0.80     6.73     0  02:38        0.80
  WS02004404           JUNCTION     0.72     0.88     6.73     0  02:38        0.88
  WS02004405           JUNCTION     0.72     0.87     6.72     0  02:38        0.87
  WS02004406           JUNCTION     0.73     0.88     6.71     0  02:39        0.88
  WS02004407           JUNCTION     0.18     0.26     6.57     0  02:39        0.26
  WS02004409           JUNCTION     0.39     0.57     6.34     0  02:39        0.57
  WS02004410           JUNCTION     0.42     0.59     6.31     0  02:40        0.59
  WS02004411           JUNCTION     0.44     0.61     6.29     0  02:40        0.61
  WS02004412           JUNCTION     0.46     0.62     6.26     0  02:46        0.62
  WS02004413           JUNCTION     0.63     0.78     6.25     0  02:40        0.78
  WS02006109           JUNCTION     0.63     1.24     7.85     0  00:00        0.84
  WS02006110           JUNCTION     0.64     1.45     8.04     0  00:00        0.84
  WS02006111           JUNCTION     0.18     1.67     8.37     0  00:00        0.56
  WS02006112           JUNCTION     0.74     2.68     8.56     0  00:00        1.29
  WS02006113           JUNCTION     0.26     1.50     8.40     0  00:00        0.41
  WS02006115           JUNCTION     0.46     1.69     7.83     0  00:00        0.86
  WS02006116           JUNCTION     0.55     1.11     7.15     0  00:00        0.77
  WS02006228           JUNCTION     0.61     1.64     8.29     0  00:00        0.86
  WS02006229           JUNCTION     0.58     1.31     8.00     0  00:00        0.86
  WS02006230           JUNCTION     0.56     0.97     7.71     0  02:15        0.94
  WS02006231           JUNCTION     0.39     0.67     7.79     0  02:15        0.66
  WS02006232           JUNCTION     0.52     0.90     7.94     0  02:14        0.84
  WS02006234           JUNCTION     0.42     0.99     8.15     0  02:14        0.85
  WS02006235           JUNCTION     0.45     0.99     8.16     0  02:14        0.88
  WS02006238           JUNCTION     0.48     1.02     8.16     0  02:14        0.90
  WS02006239           JUNCTION     0.45     1.01     8.21     0  02:14        0.91
  WS02006240           JUNCTION     0.42     1.00     8.29     0  02:15        0.87
  WS02006242           JUNCTION     0.50     1.13     8.40     0  02:15        0.94
  WS02006243           JUNCTION     0.39     1.09     8.51     0  02:15        0.87
  WS02006245           JUNCTION     0.40     1.10     8.59     0  02:15        0.86
  WS02006247           JUNCTION     0.43     1.13     8.63     0  02:15        0.89
  WS02006248           JUNCTION     0.38     1.07     8.66     0  02:15        0.87
  WS02006249           JUNCTION     0.42     1.09     8.69     0  02:14        0.93
  WS02006251           JUNCTION     0.42     1.48     9.15     0  02:15        0.96
  WS02006252           JUNCTION     0.35     1.50     9.74     0  02:11        0.59
  WS02006256           JUNCTION     0.70     2.35     9.28     0  02:10        2.35
  WSF200               JUNCTION     0.17     0.25     5.48     0  02:41        0.25
  YS02001580           JUNCTION     0.03     1.05     9.59     0  02:08        0.77
  YS02001583           JUNCTION     0.06     1.14     9.64     0  02:08        0.82
  YS02001586           JUNCTION     0.10     1.13     9.30     0  02:08        1.13
  YS02001590           JUNCTION     0.16     1.39     9.25     0  02:09        1.37
  YS02001593           JUNCTION     0.11     1.33     9.19     0  02:08        1.29
  YS02001596           JUNCTION     0.15     1.68     9.10     0  02:08        1.65
  YS02001600           JUNCTION     0.19     1.87     9.00     0  02:08        1.86
  YS02001601           JUNCTION     0.34     2.06     8.90     0  02:06        2.06
  YS02001602           JUNCTION     0.28     1.87     8.77     0  02:08        1.87
  YS02001605           JUNCTION     0.25     1.78     8.68     0  02:08        1.78
  YS02001607           JUNCTION     0.26     1.68     8.53     0  02:08        1.68
  YS02001610           JUNCTION     0.30     1.68     8.48     0  02:08        1.68
  YS02001613           JUNCTION     0.27     1.70     8.54     0  02:09        1.70
  YS02001616           JUNCTION     0.21     1.61     8.52     0  02:08        1.60
  YS02001619           JUNCTION     0.19     1.61     8.54     0  02:08        1.58
  YS02001622           JUNCTION     0.18     1.62     8.52     0  02:08        1.57
  YS02001625           JUNCTION     0.40     1.78     8.38     0  02:08        1.78
  YS02001629           JUNCTION     0.26     1.85     8.40     0  02:08        1.85
  YS02001633           JUNCTION     0.33     2.00     8.46     0  02:12        1.99
  YS02001641           JUNCTION     0.32     1.95     8.38     0  02:13        1.94
  YS02001644           JUNCTION     0.32     1.92     8.35     0  02:13        1.92
  YS02001647           JUNCTION     0.15     1.77     8.38     0  02:13        1.67
  YS02001649           JUNCTION     0.17     1.97     8.36     0  02:13        1.81
  YS02001652           JUNCTION     0.10     1.94     8.54     0  02:13        1.64
  YS02001655           JUNCTION     0.07     1.89     8.74     0  02:13        1.43
  YS02001658           JUNCTION     0.05     1.90     9.04     0  02:13        1.18
  YS02001661           JUNCTION     0.10     0.95     8.35     0  02:14        0.94
  YS02001664           JUNCTION     0.03     0.40     8.33     0  02:14        0.28
  YS02001745           JUNCTION     0.03     0.67     8.18     0  02:14        0.67
  YS02001748           JUNCTION     0.05     1.76     8.84     0  02:13        1.04
  YS02001751           JUNCTION     0.06     1.61     8.49     0  02:13        1.22
  YS02001754           JUNCTION     0.08     1.75     8.36     0  02:13        1.47
  YS02001757           JUNCTION     0.18     1.95     8.21     0  02:13        1.81
  YS02001759           JUNCTION     0.14     1.86     8.22     0  02:13        1.77
  YS02001762           JUNCTION     0.13     1.86     8.26     0  02:13        1.77
  YS02001765           JUNCTION     0.12     1.81     8.26     0  02:13        1.75
  YS02001767           JUNCTION     0.12     1.82     8.31     0  02:13        1.74
  YS02001770           JUNCTION     0.14     1.90     8.40     0  02:13        1.77
  YS02001774           JUNCTION     0.19     1.97     8.40     0  02:13        1.85
  YS02001779           JUNCTION     0.07     1.68     8.37     0  02:12        1.68
  YS02001783           JUNCTION     0.13     1.29     7.43     0  02:11        1.21
  YS02001784           JUNCTION     0.14     1.16     7.22     0  02:11        1.10
  YS02001786           JUNCTION     0.12     0.91     6.94     0  02:11        0.86
  YS02001788           JUNCTION     0.08     0.62     6.60     0  02:14        0.62
  YS02001790           JUNCTION     0.10     0.72     6.36     0  02:14        0.72
  YS02001791           JUNCTION     0.06     0.44     5.91     0  02:13        0.42
  YS02001793           JUNCTION     0.03     0.23     5.06     0  02:20        0.23
  YS02001882           JUNCTION     0.17     1.83     8.55     0  02:10        1.63
  YS02001884           JUNCTION     0.25     1.93     8.55     0  02:10        1.73
  YS02001887           JUNCTION     0.31     1.94     8.48     0  02:10        1.80
  YS02001890           JUNCTION     0.33     1.81     8.32     0  02:10        1.81
  YS02001895           JUNCTION     0.15     1.58     8.33     0  02:11        1.56
  YS02001898           JUNCTION     0.15     1.59     8.32     0  02:11        1.56
  YS02001901           JUNCTION     0.25     1.69     8.30     0  02:11        1.67
  YS02001904           JUNCTION     0.23     1.65     8.28     0  02:11        1.64
  YS02001907           JUNCTION     0.49     1.96     8.25     0  02:11        1.96
  YS02001910           JUNCTION     0.32     1.98     8.48     0  02:10        1.82
  YS02001915           JUNCTION     0.17     2.00     8.72     0  02:10        1.67
  YS02001918           JUNCTION     0.07     1.81     8.88     0  02:12        1.37
  YS02001920           JUNCTION     0.13     2.14     9.15     0  02:12        1.45
  YS02001923           JUNCTION     0.06     2.03     9.29     0  02:12        1.22
  YS02001926           JUNCTION     0.09     1.90     9.35     0  02:12        1.05
  YS02001929           JUNCTION     0.04     1.78     9.47     0  02:12        0.82
  YS02006553           JUNCTION     0.49     1.97     8.26     0  02:12        1.97
  YS02006556           JUNCTION     0.47     1.95     8.26     0  02:11        1.94
  YS02006558           JUNCTION     0.50     1.99     8.26     0  02:11        1.97
  YS02006561           JUNCTION     0.08     1.02     7.68     0  02:11        0.88
  YS02163301           JUNCTION     0.28     1.91     8.43     0  02:13        1.91
  YS02163601           JUNCTION     0.36     2.03     8.43     0  02:13        2.01
  YS02164001           JUNCTION     0.31     1.95     8.41     0  02:13        1.93
  CC-1                 OUTFALL      0.00     0.00     0.00     0  00:00        0.00
  CC-2                 OUTFALL      0.00     0.00     0.00     0  00:00        0.00
  JK-1                 OUTFALL      0.00     0.00     0.00     0  00:00        0.00
  JK-2                 OUTFALL      0.00     0.00     0.00     0  00:00        0.00
  WSC                  OUTFALL      0.18     0.26     0.93     0  02:54        0.26
  CC-storage           STORAGE      0.75     1.51     7.01     0  02:33        1.51
  JK-storage           STORAGE      1.33     4.00     4.80     0  02:10        4.00
  
  
  *******************
  Node Inflow Summary
  *******************
  
  -------------------------------------------------------------------------------------------------
                                  Maximum  Maximum                  Lateral       Total        Flow
                                  Lateral    Total  Time of Max      Inflow      Inflow     Balance
                                   Inflow   Inflow   Occurrence      Volume      Volume       Error
  Node                 Type           LPS      LPS  days hr:min    10^6 ltr    10^6 ltr     Percent
  -------------------------------------------------------------------------------------------------
  WS02003060           JUNCTION     16.53   426.97     0  02:41       0.476        6.17       0.037
  WS02003066           JUNCTION      0.00   410.41     0  02:41           0        5.69       0.022
  WS02003067           JUNCTION      0.00   410.39     0  02:41           0         5.7       0.072
  WS02003069           JUNCTION      0.32   427.26     0  02:42     0.00922        6.17       0.060
  WS02003072           JUNCTION      0.00   427.20     0  02:42           0        6.17       0.107
  WS02003073           JUNCTION      1.82   429.01     0  02:53      0.0524        6.22       0.085
  WS02004401           JUNCTION      0.00  1786.04     0  00:00           0        5.81       0.187
  WS02004402           JUNCTION      0.00  1248.69     0  00:01           0         5.8       0.187
  WS02004403           JUNCTION      0.00   929.44     0  00:01           0        5.78       0.185
  WS02004404           JUNCTION      0.00   877.02     0  00:01           0        5.77       0.183
  WS02004405           JUNCTION      0.00   827.31     0  00:01           0        5.76       0.188
  WS02004406           JUNCTION      0.00   768.45     0  00:02           0        5.75       0.372
  WS02004407           JUNCTION      0.00   410.66     0  02:39           0        5.73       0.018
  WS02004409           JUNCTION      0.00   410.63     0  02:39           0        5.73       0.044
  WS02004410           JUNCTION      0.00   410.60     0  02:39           0        5.73       0.074
  WS02004411           JUNCTION      0.00   410.52     0  02:39           0        5.72       0.096
  WS02004412           JUNCTION      0.00   410.50     0  02:40           0        5.72       0.126
  WS02004413           JUNCTION      0.00   410.48     0  02:40           0        5.71       0.231
  WS02006109           JUNCTION      0.00  1446.81     0  00:00           0        5.71      -0.069
  WS02006110           JUNCTION      0.00   471.65     0  02:15           0        5.68      -0.958
  WS02006111           JUNCTION      0.00  1180.41     0  00:00           0        5.73      -0.744
  WS02006112           JUNCTION      0.00  2307.30     0  00:00           0        5.78       0.002
  WS02006113           JUNCTION      0.00   517.18     0  00:00           0         5.7      -0.667
  WS02006115           JUNCTION      0.00   953.54     0  00:00           0        5.75      -0.621
  WS02006116           JUNCTION      0.00  1264.47     0  00:00           0        5.78      -0.405
  WS02006228           JUNCTION      0.00   869.18     0  00:00           0        5.69       0.001
  WS02006229           JUNCTION      0.00   470.70     0  02:15           0        5.68      -0.049
  WS02006230           JUNCTION     10.28   706.67     0  00:00       0.296        5.67       0.043
  WS02006231           JUNCTION      0.00   511.04     0  02:15           0        5.36       0.008
  WS02006232           JUNCTION      0.00   509.94     0  02:15           0        5.36       0.073
  WS02006234           JUNCTION      0.00   506.94     0  02:15           0        5.35      -0.013
  WS02006235           JUNCTION      0.00   504.62     0  02:14           0        5.35       0.044
  WS02006238           JUNCTION      0.00   427.06     0  02:15           0        5.27      -0.033
  WS02006239           JUNCTION      0.00   427.61     0  02:15           0        5.27      -0.060
  WS02006240           JUNCTION      0.00   424.75     0  02:15           0        5.27       0.005
  WS02006242           JUNCTION      0.00   423.96     0  02:15           0        5.27       0.038
  WS02006243           JUNCTION      0.00   423.97     0  02:15           0        5.27      -0.047
  WS02006245           JUNCTION      0.00   423.91     0  02:15           0        5.28       0.118
  WS02006247           JUNCTION      0.00   424.53     0  02:15           0        5.28       0.018
  WS02006248           JUNCTION      0.00   424.32     0  02:15           0        5.28      -0.010
  WS02006249           JUNCTION      0.00   425.35     0  02:15           0        5.29       0.138
  WS02006251           JUNCTION      0.00   406.31     0  02:15           0        5.29       0.007
  WS02006252           JUNCTION      0.00   400.00     0  02:11           0        5.28      -0.202
  WS02006256           JUNCTION      0.00   300.00     0  02:10           0      0.0915       0.140
  WSF200               JUNCTION      0.00   410.40     0  02:41           0        5.69       0.008
  YS02001580           JUNCTION      0.00   138.53     0  02:08           0     0.00425      -0.768
  YS02001583           JUNCTION      0.00   167.86     0  02:08           0      0.0153      -4.474
  YS02001586           JUNCTION    431.21   431.21     0  02:15        1.07        1.08       0.114
  YS02001590           JUNCTION      0.00   317.84     0  02:14           0        1.01      -0.035
  YS02001593           JUNCTION      0.00   317.95     0  02:18           0        1.01      -0.013
  YS02001596           JUNCTION      0.00   317.84     0  02:17           0        1.01      -0.017
  YS02001600           JUNCTION      0.00   317.93     0  02:18           0        1.01      -0.003
  YS02001601           JUNCTION    791.44  1108.89     0  02:14        1.53        2.54       0.012
  YS02001602           JUNCTION      0.00   518.68     0  02:08           0         1.9       0.015
  YS02001605           JUNCTION      0.00   518.63     0  02:08           0        1.83       0.022
  YS02001607           JUNCTION      0.00   518.68     0  02:08           0        1.83       0.102
  YS02001610           JUNCTION      0.00   522.23     0  02:07           0        1.83       0.111
  YS02001613           JUNCTION      0.00   524.92     0  02:07           0        1.66       0.092
  YS02001616           JUNCTION      0.00   526.56     0  02:07           0        1.66       0.016
  YS02001619           JUNCTION    763.35   922.04     0  02:10         1.7        3.36      -0.005
  YS02001622           JUNCTION      0.00   921.88     0  02:10           0        3.36      -0.006
  YS02001625           JUNCTION      0.00   928.76     0  02:08           0        3.36       0.266
  YS02001629           JUNCTION      0.00   928.65     0  02:08           0           3       0.018
  YS02001633           JUNCTION    593.11  1371.74     0  02:11         1.1         4.1       0.079
  YS02001641           JUNCTION      0.00  1371.21     0  02:11           0        4.09       0.063
  YS02001644           JUNCTION    531.82  1781.94     0  02:11       0.955        5.04       0.064
  YS02001647           JUNCTION      0.00  1781.31     0  02:11           0        5.03       0.006
  YS02001649           JUNCTION      0.00  2000.59     0  02:10           0        5.88       0.004
  YS02001652           JUNCTION      0.00   604.32     0  02:14           0       0.856      -0.096
  YS02001655           JUNCTION      0.00   604.24     0  02:14           0       0.856      -0.030
  YS02001658           JUNCTION      0.00   676.69     0  02:13           0       0.855      -0.092
  YS02001661           JUNCTION      0.00   676.39     0  02:14           0       0.855       0.039
  YS02001664           JUNCTION    517.85   517.85     0  02:14       0.855       0.855      -0.007
  YS02001745           JUNCTION    336.19   353.40     0  02:13        0.53       0.531       0.295
  YS02001748           JUNCTION      0.00   575.47     0  02:13           0       0.529      -0.486
  YS02001751           JUNCTION      0.00   408.99     0  02:19           0       0.537       0.068
  YS02001754           JUNCTION      0.00   388.53     0  02:14           0       0.543      -0.196
  YS02001757           JUNCTION      0.00  3177.90     0  02:14           0        8.27       0.034
  YS02001759           JUNCTION    465.03  1133.96     0  02:13       0.728        1.84      -0.018
  YS02001762           JUNCTION      0.00   668.74     0  02:13           0        1.12       0.007
  YS02001765           JUNCTION      0.00   667.40     0  02:13           0        1.12       0.021
  YS02001767           JUNCTION      0.00   666.07     0  02:13           0        1.12      -0.000
  YS02001770           JUNCTION    658.62   661.48     0  02:14        1.12        1.16      -0.005
  YS02001774           JUNCTION      0.00   329.56     0  02:11           0      0.0637       1.740
  YS02001779           JUNCTION      0.00   334.28     0  02:11           0        0.02      -3.633
  YS02001783           JUNCTION      0.00  1153.91     0  02:12           0        3.09      -0.001
  YS02001784           JUNCTION      0.00  1154.41     0  02:13           0        3.09       0.001
  YS02001786           JUNCTION      0.00  1154.10     0  02:12           0        3.09       0.005
  YS02001788           JUNCTION      0.00  1154.29     0  02:13           0        3.09       0.004
  YS02001790           JUNCTION      0.00  1164.15     0  02:14           0        3.09       0.014
  YS02001791           JUNCTION      0.00  1272.17     0  02:13           0        3.09      -0.024
  YS02001793           JUNCTION      0.00  1229.27     0  02:14           0        3.09       0.006
  YS02001882           JUNCTION      0.00    65.78     0  02:10           0      0.0129       2.851
  YS02001884           JUNCTION      0.00    81.47     0  02:09           0      0.0487       4.016
  YS02001887           JUNCTION    510.15   510.38     0  02:13       0.762       0.796       0.485
  YS02001890           JUNCTION      0.00   510.69     0  02:13           0       0.756       0.578
  YS02001895           JUNCTION      0.00   502.66     0  02:13           0        0.75       0.178
  YS02001898           JUNCTION      0.00   502.88     0  02:13           0       0.748      -0.052
  YS02001901           JUNCTION      0.00   502.92     0  02:13           0       0.749       0.355
  YS02001904           JUNCTION      0.00   503.07     0  02:13           0        0.75       0.296
  YS02001907           JUNCTION      0.00  1497.78     0  02:13           0        2.37       0.704
  YS02001910           JUNCTION      0.00  1002.29     0  02:13           0        1.62       0.378
  YS02001915           JUNCTION    577.50  1002.05     0  02:13        1.07        1.67       0.052
  YS02001918           JUNCTION      0.00   439.12     0  02:13           0        0.63       0.005
  YS02001920           JUNCTION      0.00   438.16     0  02:13           0       0.611       0.080
  YS02001923           JUNCTION      0.00   425.79     0  02:12           0       0.595      -0.173
  YS02001926           JUNCTION      0.00   564.43     0  02:12           0       0.576      -0.044
  YS02001929           JUNCTION    278.98   408.77     0  02:12       0.562       0.564      -0.052
  YS02006553           JUNCTION      0.00   793.07     0  02:24           0        2.04       0.537
  YS02006556           JUNCTION      0.00   793.15     0  02:24           0        2.05       0.349
  YS02006558           JUNCTION    673.24  1177.24     0  02:11         1.1        3.13       0.110
  YS02006561           JUNCTION      0.00  1177.39     0  02:11           0        3.09      -0.008
  YS02163301           JUNCTION      0.00   922.72     0  02:10           0           3       0.042
  YS02163601           JUNCTION      0.00  1371.44     0  02:11           0        4.09       0.118
  YS02164001           JUNCTION      0.00  1371.18     0  02:11           0        4.09       0.047
  CC-1                 OUTFALL       0.00   683.00     0  02:15           0        2.44       0.000
  CC-2                 OUTFALL       0.00   683.00     0  02:20           0         1.4       0.000
  JK-1                 OUTFALL       0.00  1000.00     0  00:05           0        1.55       0.000
  JK-2                 OUTFALL       0.00  1000.00     0  00:05           0        1.55       0.000
  WSC                  OUTFALL       0.00   429.00     0  02:54           0        6.21       0.000
  CC-storage           STORAGE       0.00  3178.03     0  02:14           0        10.5      -0.276
  JK-storage           STORAGE       0.00  1267.26     0  02:15           0        3.24      -0.489
  
  
  **********************
  Node Surcharge Summary
  **********************
  
  Surcharging occurs when water rises above the top of the highest conduit.
  ---------------------------------------------------------------------
                                               Max. Height   Min. Depth
                                   Hours       Above Crown    Below Rim
  Node                 Type      Surcharged         Meters       Meters
  ---------------------------------------------------------------------
  WS02006109           JUNCTION        1.63          0.416        1.404
  WS02006110           JUNCTION        0.01          0.544        1.306
  WS02006111           JUNCTION        0.01          0.856        1.014
  WS02006112           JUNCTION        0.02          1.680        0.000
  WS02006113           JUNCTION        0.01          0.705        1.225
  WS02006115           JUNCTION        0.01          0.682        1.568
  WS02006116           JUNCTION        0.01          0.053        2.237
  WS02006228           JUNCTION        1.61          0.810        1.390
  WS02006229           JUNCTION        1.63          0.510        1.940
  WS02006232           JUNCTION        1.63          0.198        1.282
  WS02006234           JUNCTION        0.03          0.275        0.965
  WS02006235           JUNCTION        1.61          0.284        1.006
  WS02006238           JUNCTION        1.62          0.299        1.131
  WS02006239           JUNCTION        1.61          0.265        1.025
  WS02006240           JUNCTION        1.61          0.287        1.103
  WS02006242           JUNCTION        1.63          0.402        0.418
  WS02006243           JUNCTION        1.61          0.377        0.393
  WS02006245           JUNCTION        1.60          0.394        0.456
  WS02006247           JUNCTION        1.60          0.419        0.341
  WS02006248           JUNCTION        1.59          0.350        0.030
  WS02006249           JUNCTION        1.59          0.390        0.000
  WS02006251           JUNCTION        0.01          0.452        0.728
  WS02006252           JUNCTION        1.68          1.100        0.000
  WS02006256           JUNCTION        7.85          2.050        0.000
  YS02001580           JUNCTION        0.36          0.450        0.000
  YS02001583           JUNCTION        0.37          0.500        0.000
  YS02001586           JUNCTION        0.50          0.510        0.000
  YS02001590           JUNCTION        0.57          0.741        0.009
  YS02001593           JUNCTION        0.57          0.711        0.129
  YS02001596           JUNCTION        0.67          0.953        0.117
  YS02001600           JUNCTION        0.81          1.190        0.000
  YS02001601           JUNCTION        1.17          1.440        0.000
  YS02001602           JUNCTION        1.05          1.270        0.000
  YS02001605           JUNCTION        0.99          1.180        0.000
  YS02001607           JUNCTION        0.54          0.680        0.000
  YS02001610           JUNCTION        0.56          0.680        0.000
  YS02001613           JUNCTION        0.53          0.700        0.000
  YS02001616           JUNCTION        0.49          0.610        0.000
  YS02001619           JUNCTION        0.48          0.610        0.000
  YS02001622           JUNCTION        0.48          0.620        0.000
  YS02001625           JUNCTION        0.64          0.780        0.000
  YS02001629           JUNCTION        0.44          0.470        0.000
  YS02001633           JUNCTION        0.66          0.984        0.076
  YS02001641           JUNCTION        0.59          0.947        0.153
  YS02001644           JUNCTION        0.56          0.920        0.000
  YS02001647           JUNCTION        0.37          0.770        0.130
  YS02001649           JUNCTION        0.47          0.969        0.081
  YS02001652           JUNCTION        0.31          0.913        0.217
  YS02001655           JUNCTION        0.19          0.888        0.312
  YS02001658           JUNCTION        0.04          0.898        0.402
  YS02001748           JUNCTION        0.01          0.682        0.508
  YS02001751           JUNCTION        0.10          0.611        0.589
  YS02001754           JUNCTION        0.22          0.701        0.449
  YS02001757           JUNCTION        0.51          0.946        0.264
  YS02001759           JUNCTION        0.43          0.856        0.354
  YS02001762           JUNCTION        0.40          0.859        0.291
  YS02001765           JUNCTION        0.36          0.814        0.286
  YS02001767           JUNCTION        0.34          0.824        0.206
  YS02001770           JUNCTION        0.32          0.872        0.048
  YS02001774           JUNCTION        0.39          0.974        0.076
  YS02001779           JUNCTION        0.23          0.680        0.000
  YS02001783           JUNCTION        0.37          0.491        1.109
  YS02001784           JUNCTION        0.34          0.357        1.133
  YS02001786           JUNCTION        0.25          0.108        1.322
  YS02001882           JUNCTION        0.32          0.830        0.000
  YS02001884           JUNCTION        0.33          0.870        0.000
  YS02001887           JUNCTION        0.36          0.892        0.058
  YS02001890           JUNCTION        0.37          0.760        0.000
  YS02001895           JUNCTION        0.31          0.579        0.171
  YS02001898           JUNCTION        0.30          0.557        0.183
  YS02001901           JUNCTION        0.34          0.695        0.175
  YS02001904           JUNCTION        0.34          0.650        0.200
  YS02001907           JUNCTION        0.56          0.950        0.000
  YS02001910           JUNCTION        0.39          0.976        0.124
  YS02001915           JUNCTION        0.32          1.000        0.000
  YS02001918           JUNCTION        0.24          0.810        0.000
  YS02001920           JUNCTION        0.25          1.140        0.000
  YS02001923           JUNCTION        0.01          0.820        0.000
  YS02001926           JUNCTION        0.01          0.900        0.000
  YS02001929           JUNCTION        0.01          0.780        0.000
  YS02006553           JUNCTION        0.57          0.971        0.219
  YS02006556           JUNCTION        0.48          0.907        0.443
  YS02006558           JUNCTION        0.46          0.894        0.506
  YS02006561           JUNCTION        0.21          0.221        0.929
  YS02163301           JUNCTION        0.64          0.914        0.116
  YS02163601           JUNCTION        0.69          1.032        0.048
  YS02164001           JUNCTION        0.60          0.952        0.148
  
  
  *********************
  Node Flooding Summary
  *********************
  
  Flooding refers to all water that overflows a node, whether it ponds or not.
  --------------------------------------------------------------------------
                                                             Total   Maximum
                                 Maximum   Time of Max       Flood    Ponded
                        Hours       Rate    Occurrence      Volume     Depth
  Node                 Flooded       LPS   days hr:min    10^6 ltr    Meters
  --------------------------------------------------------------------------
  WS02006112              0.01   1405.86      0  00:00       0.047     0.000
  WS02006249              0.01     62.32      0  02:15       0.000     0.000
  WS02006252              0.01      0.91      0  02:11       0.000     0.000
  WS02006256              0.08    271.82      0  02:10       0.020     0.000
  YS02001580              0.01    127.77      0  02:08       0.000     0.000
  YS02001583              0.01     95.48      0  02:08       0.000     0.000
  YS02001586              0.25    113.77      0  02:16       0.059     0.000
  YS02001600              0.01      0.61      0  02:08       0.000     0.000
  YS02001601              0.44    711.06      0  02:14       0.642     0.000
  YS02001602              0.34     61.98      0  02:15       0.065     0.000
  YS02001605              0.01      3.73      0  02:08       0.000     0.000
  YS02001607              0.01     28.01      0  02:08       0.000     0.000
  YS02001610              0.28    268.18      0  02:16       0.170     0.000
  YS02001613              0.01      0.45      0  02:09       0.000     0.000
  YS02001616              0.01     45.57      0  02:08       0.000     0.000
  YS02001619              0.01     47.65      0  02:08       0.000     0.000
  YS02001622              0.01     91.24      0  02:08       0.000     0.000
  YS02001625              0.26    828.64      0  02:15       0.353     0.000
  YS02001629              0.04    145.93      0  02:08       0.004     0.000
  YS02001644              0.03     91.15      0  02:14       0.006     0.000
  YS02001779              0.01    297.48      0  02:12       0.002     0.000
  YS02001882              0.01     15.15      0  02:10       0.000     0.000
  YS02001884              0.01     13.37      0  02:10       0.000     0.000
  YS02001890              0.04     40.46      0  02:10       0.002     0.000
  YS02001907              0.18   1012.31      0  02:13       0.333     0.000
  YS02001915              0.01     71.09      0  02:10       0.000     0.000
  YS02001918              0.01    257.51      0  02:12       0.003     0.000
  YS02001920              0.01     57.08      0  02:12       0.000     0.000
  YS02001923              0.01    313.98      0  02:12       0.001     0.000
  YS02001926              0.01     95.45      0  02:12       0.001     0.000
  YS02001929              0.01     61.23      0  02:12       0.000     0.000
  
  
  **********************
  Storage Volume Summary
  **********************
  
  --------------------------------------------------------------------------------------------------
                         Average     Avg  Evap Exfil       Maximum     Max    Time of Max    Maximum
                          Volume    Pcnt  Pcnt  Pcnt        Volume    Pcnt     Occurrence    Outflow
  Storage Unit           1000 m3    Full  Loss  Loss       1000 m3    Full    days hr:min        LPS
  --------------------------------------------------------------------------------------------------
  CC-storage               2.082      32     0     0         4.202      66       0  02:33    1766.00
  JK-storage               0.067      23     0     0         0.201      69       0  02:10    2300.00
  
  
  ***********************
  Outfall Loading Summary
  ***********************
  
  -----------------------------------------------------------
                         Flow       Avg       Max       Total
                         Freq      Flow      Flow      Volume
  Outfall Node           Pcnt       LPS       LPS    10^6 ltr
  -----------------------------------------------------------
  CC-1                   6.95    683.00    683.00       2.444
  CC-2                   4.40    683.00    683.00       1.403
  JK-1                   4.61   1000.00   1000.00       1.554
  JK-2                   4.61   1000.00   1000.00       1.554
  WSC                  100.00    221.80    429.00       6.211
  -----------------------------------------------------------
  System                24.11   3587.80    429.00      13.168
  
  
  ********************
  Link Flow Summary
  ********************
  
  -----------------------------------------------------------------------------
                                 Maximum  Time of Max   Maximum    Max/    Max/
                                  |Flow|   Occurrence   |Veloc|    Full    Full
  Link                 Type          LPS  days hr:min     m/sec    Flow   Depth
  -----------------------------------------------------------------------------
  1                    CONDUIT    429.00     0  02:54      2.63    0.15    0.26
  WS02003060WS02003069 CONDUIT    426.94     0  02:42      1.54    0.17    0.29
  WS02003066WSF200     CONDUIT    410.40     0  02:41      2.67    0.07    0.19
  WS02003067WS02003066 CONDUIT    410.41     0  02:41      1.04    0.13    0.38
  WS02003069WS02003072 CONDUIT    427.20     0  02:42      1.26    0.21    0.34
  WS02003072WS02003073 CONDUIT    427.18     0  02:53      1.31    0.92    0.33
  WS02004401WS02004402 CONDUIT   1248.69     0  00:01      2.52    1.50    0.77
  WS02004402WS02004403 CONDUIT    929.44     0  00:01      2.21    1.34    0.79
  WS02004403WS02004404 CONDUIT    877.02     0  00:01      2.01    0.63    0.84
  WS02004404WS02004405 CONDUIT    827.31     0  00:01      2.30    8.11    0.88
  WS02004405WS02004406 CONDUIT    768.45     0  00:02      2.19    1.52    0.88
  WS02004406WS02004407 CONDUIT    410.66     0  02:39      0.89    0.18    0.57
  WS02004407WS02004409 CONDUIT    410.63     0  02:39      2.06    0.15    0.42
  WS02004409WS02004410 CONDUIT    410.60     0  02:39      1.39    0.53    0.58
  WS02004410WS02004411 CONDUIT    410.52     0  02:39      1.32    0.56    0.60
  WS02004411WS02004412 CONDUIT    410.50     0  02:40      1.30    0.58    0.61
  WS02004412WS02004413 CONDUIT    410.48     0  02:40      1.26    0.27    0.70
  WS02004413WS02003067 CONDUIT    410.39     0  02:41      0.96    0.18    0.53
  WS02006109WS02006110 CONDUIT   1446.81     0  00:00      2.88    2.78    1.00
  WS02006110WS02006113 CONDUIT    517.18     0  00:00      1.16    0.47    1.00
  WS02006111WS02006112 CONDUIT   2307.30     0  00:00      9.18    1.10    1.00
  WS02006112WS02006115 CONDUIT    953.54     0  00:00      1.24    0.56    1.00
  WS02006113WS02006111 CONDUIT   1180.41     0  00:00      2.35    1.41    1.00
  WS02006115WS02006116 CONDUIT   1264.47     0  00:00      1.74    1.62    1.00
  WS02006116WS02004401 CONDUIT   1786.04     0  00:00      2.94    2.46    0.77
  WS02006228WS02006109 CONDUIT    869.18     0  00:00      1.91    3.80    1.00
  WS02006229WS02006228 CONDUIT    470.55     0  00:00      0.94    1.56    1.00
  WS02006230WS02006229 CONDUIT    696.39     0  00:00      1.89   15.50    1.00
  WS02006231WS02006230 CONDUIT    480.34     0  02:14      1.91    7.29    0.89
  WS02006232WS02006231 CONDUIT    511.04     0  02:15      1.80    1.07    0.97
  WS02006234WS02006232 CONDUIT    509.94     0  02:15      1.33    1.03    1.00
  WS02006235WS02006234 CONDUIT    506.94     0  02:15      1.32    5.35    1.00
  WS02006238WS02006235 CONDUIT    427.87     0  02:15      1.11    0.96    1.00
  WS02006239WS02006238 CONDUIT    427.06     0  02:15      1.11    1.37    1.00
  WS02006240WS02006239 CONDUIT    427.61     0  02:15      1.11    1.35    1.00
  WS02006242WS02006240 CONDUIT    424.75     0  02:15      1.10    1.69    1.00
  WS02006243WS02006242 CONDUIT    423.96     0  02:15      1.16    0.91    1.00
  WS02006245WS02006243 CONDUIT    423.97     0  02:15      1.15    1.25    1.00
  WS02006247WS02006245 CONDUIT    423.91     0  02:15      1.16    3.36    1.00
  WS02006248WS02006247 CONDUIT    424.53     0  02:15      1.27    0.92    1.00
  WS02006249WS02006248 CONDUIT    424.32     0  02:15      1.31    2.32    1.00
  WS02006251WS02006249 CONDUIT    425.35     0  02:15      1.75    1.23    1.00
  WS02006252WS02006251 CONDUIT    406.31     0  02:15     18.42    1.49    1.00
  WS02006256WS02006235 CONDUIT    247.67     0  02:10      3.50    2.62    1.00
  WSF200WS02003060     CONDUIT    410.44     0  02:41      1.92    0.09    0.24
  YS02001580YS02001583 CONDUIT    138.53     0  02:08      0.67    0.54    1.00
  YS02001583YS02001586 CONDUIT    160.14     0  02:08      0.68    0.24    1.00
  YS02001586YS02001590 CONDUIT    317.84     0  02:14      1.25    0.56    1.00
  YS02001590YS02001593 CONDUIT    317.95     0  02:18      1.12    2.00    1.00
  YS02001593YS02001596 CONDUIT    317.84     0  02:17      1.72    0.50    1.00
  YS02001596YS02001600 CONDUIT    317.93     0  02:18      1.21    0.62    1.00
  YS02001600YS02001601 CONDUIT    317.80     0  02:15      1.12    0.55    1.00
  YS02001601YS02001602 CONDUIT    518.68     0  02:08      1.83    1.87    1.00
  YS02001602YS02001605 CONDUIT    518.63     0  02:08      1.83   10.98    1.00
  YS02001605YS02001607 CONDUIT    518.68     0  02:08      1.83    2.84    1.00
  YS02001607YS02001610 CONDUIT    522.23     0  02:07      0.66    0.50    1.00
  YS02001610YS02001613 CONDUIT    524.92     0  02:07      0.67    0.61    1.00
  YS02001613YS02001616 CONDUIT    526.56     0  02:07      0.68    0.45    1.00
  YS02001616YS02001619 CONDUIT    492.67     0  02:08      0.66    0.86    1.00
  YS02001619YS02001622 CONDUIT    921.88     0  02:10      1.19    1.36    1.00
  YS02001622YS02001625 CONDUIT    928.76     0  02:08      1.18    0.50    1.00
  YS02001625YS02001629 CONDUIT    928.65     0  02:08      1.20    0.44    1.00
  YS02001629YS02163301 CONDUIT    922.72     0  02:10      1.17    1.14    1.00
  YS02001633YS02163601 CONDUIT   1371.44     0  02:11      1.75    1.44    1.00
  YS02001641YS02001644 CONDUIT   1371.04     0  02:11      1.75    4.43    1.00
  YS02001644YS02001647 CONDUIT   1781.31     0  02:11      2.27    1.05    1.00
  YS02001647YS02001649 CONDUIT   1795.46     0  02:11      2.32    0.95    1.00
  YS02001649YS02001757 CONDUIT   1990.82     0  02:11      2.53    1.21    1.00
  YS02001652YS02001649 CONDUIT    605.79     0  02:14      0.78    0.30    1.00
  YS02001655YS02001652 CONDUIT    604.32     0  02:14      1.30    0.29    1.00
  YS02001658YS02001655 CONDUIT    604.24     0  02:14      1.90    0.26    1.00
  YS02001661YS02001658 CONDUIT    676.69     0  02:13      2.32    0.27    0.94
  YS02001664YS02001661 CONDUIT    676.39     0  02:14      2.29    0.21    0.64
  YS02001745YS02001748 CONDUIT    575.47     0  02:13      2.19    0.22    0.78
  YS02001748YS02001751 CONDUIT    408.99     0  02:19      1.70    0.21    1.00
  YS02001751YS02001754 CONDUIT    388.53     0  02:14      1.44    0.19    1.00
  YS02001754YS02001757 CONDUIT    389.69     0  02:14      0.50    0.16    1.00
  YS02001757CaochengTiaoxuchi CONDUIT   3178.03     0  02:14      4.05    1.38    1.00
  YS02001759YS02001757 CONDUIT   1134.45     0  02:13      1.44    0.81    1.00
  YS02001762YS02001759 CONDUIT    668.97     0  02:13      0.85    0.77    1.00
  YS02001765YS02001762 CONDUIT    668.74     0  02:13      0.85    0.63    1.00
  YS02001767YS02001765 CONDUIT    667.40     0  02:13      0.85    0.84    1.00
  YS02001770YS02001767 CONDUIT    666.07     0  02:13      0.85    2.64    1.00
  YS02001774YS02001770 CONDUIT    329.56     0  02:11      0.42    0.21    1.00
  YS02001779YS02001774 CONDUIT    334.28     0  02:11      0.43    0.17    1.00
  YS02001783YS02001784 CONDUIT   1154.41     0  02:13      2.30    1.59    1.00
  YS02001784YS02001785 CONDUIT   1154.10     0  02:12      2.30    2.69    1.00
  YS02001786YS02001788 CONDUIT   1154.29     0  02:13      2.46    2.22    0.89
  YS02001788YS02001790 CONDUIT   1164.15     0  02:14      2.70    0.86    0.83
  YS02001790YS02001791 CONDUIT   1272.17     0  02:13      3.41    1.38    0.70
  YS02001791YS02001793 CONDUIT   1229.27     0  02:14      6.77    0.53    0.41
  YS02001793JiankangQianchi CONDUIT   1267.26     0  02:15      2.54    0.10    0.62
  YS02001882YS02001884 CONDUIT     65.78     0  02:10      0.13    0.08    1.00
  YS02001884YS02001887 CONDUIT     81.47     0  02:09      0.10    0.11    1.00
  YS02001887YS02001890 CONDUIT    510.69     0  02:13      0.65    0.87    1.00
  YS02001890YS02001895 CONDUIT    502.66     0  02:13      0.64    0.23    1.00
  YS02001895YS02001898 CONDUIT    502.88     0  02:13      0.64    0.87    1.00
  YS02001898YS02001901 CONDUIT    502.92     0  02:13      0.64    0.32    1.00
  YS02001901YS02001904 CONDUIT    503.07     0  02:13      0.64    0.78    1.00
  YS02001904YS02001907 CONDUIT    502.97     0  02:13      0.64    0.18    1.00
  YS02001907YS02006553 CONDUIT    793.07     0  02:24      0.88    0.93    1.00
  YS02001910YS02001907 CONDUIT   1002.63     0  02:13      1.28    0.57    1.00
  YS02001915YS02001910 CONDUIT   1002.29     0  02:13      1.28    0.50    1.00
  YS02001918YS02001915 CONDUIT    439.58     0  02:13      0.56    0.24    1.00
  YS02001920YS02001918 CONDUIT    439.12     0  02:13      0.64    0.42    1.00
  YS02001923YS02001920 CONDUIT    438.16     0  02:13      0.70    0.20    1.00
  YS02001926YS02001923 CONDUIT    419.74     0  02:12      0.96    0.60    1.00
  YS02001929YS02001926 CONDUIT    387.62     0  02:12      1.13    0.18    1.00
  YS02006553YS02006556 CONDUIT    793.15     0  02:24      1.01    0.68    1.00
  YS02006556YS02006558 CONDUIT    794.93     0  02:24      1.01    0.63    1.00
  YS02006558YS02006561 CONDUIT   1177.39     0  02:11      4.16    2.60    1.00
  YS02006561YS02001783 CONDUIT   1153.91     0  02:12      2.30    0.60    1.00
  YS02163301YS02001633 CONDUIT    923.00     0  02:10      1.18    0.87    1.00
  YS02163601YS02164001 CONDUIT   1371.18     0  02:11      1.75    1.21    1.00
  YS02164001YS02001641 CONDUIT   1371.21     0  02:11      1.75    1.87    1.00
  CC-R1                PUMP       683.00     0  02:15              1.00
  CC-R2                PUMP       683.00     0  02:20              1.00
  CC-S1                PUMP       200.00     0  00:05              1.00
  CC-S2                PUMP       200.00     0  02:11              1.00
  JK-R1                PUMP      1000.00     0  00:05              1.00
  JK-R2                PUMP      1000.00     0  00:05              1.00
  JK-S                 PUMP       300.00     0  02:10              1.00
  
  
  ***************************
  Flow Classification Summary
  ***************************
  
  -------------------------------------------------------------------------------------
                      Adjusted    ---------- Fraction of Time in Flow Class ---------- 
                       /Actual         Up    Down  Sub   Sup   Up    Down  Norm  Inlet 
  Conduit               Length    Dry  Dry   Dry   Crit  Crit  Crit  Crit  Ltd   Ctrl  
  -------------------------------------------------------------------------------------
  1                       1.00   0.00  0.00  0.00  0.00  1.00  0.00  0.00  0.17  0.00
  WS02003060WS02003069    1.00   0.00  0.00  0.00  0.99  0.01  0.00  0.00  0.69  0.00
  WS02003066WSF200        1.00   0.02  0.00  0.00  0.00  0.98  0.00  0.00  0.97  0.00
  WS02003067WS02003066    1.00   0.01  0.01  0.00  0.98  0.00  0.00  0.00  0.00  0.00
  WS02003069WS02003072    1.00   0.00  0.00  0.00  1.00  0.00  0.00  0.00  0.78  0.00
  WS02003072WS02003073    1.00   0.00  0.00  0.00  0.00  0.00  0.00  1.00  0.00  0.00
  WS02004401WS02004402    1.00   0.00  0.00  0.00  1.00  0.00  0.00  0.00  0.00  0.00
  WS02004402WS02004403    1.00   0.00  0.00  0.00  1.00  0.00  0.00  0.00  0.00  0.00
  WS02004403WS02004404    1.00   0.00  0.00  0.00  1.00  0.00  0.00  0.00  0.00  0.00
  WS02004404WS02004405    1.00   0.00  0.00  0.00  1.00  0.00  0.00  0.00  0.01  0.00
  WS02004405WS02004406    1.00   0.00  0.00  0.00  1.00  0.00  0.00  0.00  0.00  0.00
  WS02004406WS02004407    1.00   0.00  0.00  0.00  1.00  0.00  0.00  0.00  0.00  0.00
  WS02004407WS02004409    1.00   0.00  0.00  0.00  1.00  0.00  0.00  0.00  0.99  0.00
  WS02004409WS02004410    1.00   0.00  0.00  0.00  1.00  0.00  0.00  0.00  0.00  0.00
  WS02004410WS02004411    1.00   0.00  0.00  0.00  1.00  0.00  0.00  0.00  0.00  0.00
  WS02004411WS02004412    1.00   0.00  0.00  0.00  1.00  0.00  0.00  0.00  0.00  0.00
  WS02004412WS02004413    1.00   0.00  0.00  0.00  0.99  0.00  0.00  0.00  0.00  0.00
  WS02004413WS02003067    1.00   0.00  0.01  0.00  0.00  0.00  0.99  0.00  0.00  0.00
  WS02006109WS02006110    1.00   0.00  0.00  0.00  1.00  0.00  0.00  0.00  0.00  0.00
  WS02006110WS02006113    1.00   0.00  0.00  0.00  1.00  0.00  0.00  0.00  0.00  0.00
  WS02006111WS02006112    1.00   0.00  0.00  0.00  1.00  0.00  0.00  0.00  1.00  0.00
  WS02006112WS02006115    1.00   0.00  0.00  0.00  1.00  0.00  0.00  0.00  0.00  0.00
  WS02006113WS02006111    1.00   0.00  0.00  0.00  0.00  1.00  0.00  0.00  0.19  0.00
  WS02006115WS02006116    1.00   0.00  0.00  0.00  1.00  0.00  0.00  0.00  0.00  0.00
  WS02006116WS02004401    1.00   0.00  0.00  0.00  1.00  0.00  0.00  0.00  0.00  0.00
  WS02006228WS02006109    1.00   0.00  0.00  0.00  1.00  0.00  0.00  0.00  0.00  0.00
  WS02006229WS02006228    1.00   0.00  0.00  0.00  1.00  0.00  0.00  0.00  0.00  0.00
  WS02006230WS02006229    1.00   0.00  0.00  0.00  1.00  0.00  0.00  0.00  0.00  0.00
  WS02006231WS02006230    1.00   0.00  0.00  0.00  0.12  0.00  0.88  0.00  0.00  0.00
  WS02006232WS02006231    1.00   0.00  0.00  0.00  1.00  0.00  0.00  0.00  0.00  0.00
  WS02006234WS02006232    1.00   0.00  0.00  0.00  1.00  0.00  0.00  0.00  0.00  0.00
  WS02006235WS02006234    1.00   0.00  0.00  0.00  0.98  0.00  0.02  0.00  0.00  0.00
  WS02006238WS02006235    1.00   0.00  0.00  0.00  1.00  0.00  0.00  0.00  0.00  0.00
  WS02006239WS02006238    1.00   0.00  0.00  0.00  1.00  0.00  0.00  0.00  0.00  0.00
  WS02006240WS02006239    1.00   0.01  0.00  0.00  0.93  0.00  0.00  0.06  0.00  0.00
  WS02006242WS02006240    1.00   0.01  0.00  0.00  0.98  0.00  0.01  0.00  0.00  0.00
  WS02006243WS02006242    1.00   0.01  0.00  0.00  0.98  0.00  0.00  0.01  0.26  0.00
  WS02006245WS02006243    1.00   0.01  0.00  0.00  0.96  0.00  0.00  0.03  0.00  0.00
  WS02006247WS02006245    1.00   0.00  0.00  0.00  0.98  0.00  0.00  0.01  0.00  0.00
  WS02006248WS02006247    1.00   0.00  0.00  0.00  0.99  0.00  0.00  0.01  0.26  0.00
  WS02006249WS02006248    1.00   0.00  0.00  0.00  0.92  0.00  0.08  0.00  0.00  0.00
  WS02006251WS02006249    1.00   0.00  0.00  0.00  0.99  0.00  0.00  0.00  0.22  0.00
  WS02006252WS02006251    1.00   0.00  0.05  0.00  0.00  0.00  0.95  0.00  0.00  0.00
  WS02006256WS02006235    1.00   0.00  0.00  0.00  1.00  0.00  0.00  0.00  0.00  0.00
  WSF200WS02003060        1.00   0.00  0.02  0.00  0.04  0.94  0.00  0.00  0.59  0.00
  YS02001580YS02001583    1.00   0.37  0.53  0.00  0.10  0.00  0.00  0.00  0.67  0.00
  YS02001583YS02001586    1.00   0.34  0.53  0.00  0.12  0.00  0.00  0.00  0.67  0.00
  YS02001586YS02001590    1.00   0.19  0.00  0.00  0.40  0.06  0.00  0.35  0.38  0.00
  YS02001590YS02001593    1.00   0.19  0.01  0.00  0.07  0.00  0.72  0.00  0.00  0.00
  YS02001593YS02001596    1.00   0.21  0.00  0.00  0.09  0.01  0.00  0.70  0.02  0.00
  YS02001596YS02001600    1.00   0.21  0.00  0.00  0.15  0.01  0.00  0.62  0.05  0.00
  YS02001600YS02001601    1.00   0.20  0.01  0.00  0.79  0.00  0.00  0.00  0.63  0.00
  YS02001601YS02001602    1.00   0.19  0.02  0.00  0.79  0.00  0.00  0.00  0.00  0.00
  YS02001602YS02001605    1.00   0.21  0.00  0.00  0.79  0.00  0.00  0.00  0.00  0.00
  YS02001605YS02001607    1.00   0.21  0.00  0.00  0.79  0.00  0.00  0.00  0.00  0.00
  YS02001607YS02001610    1.00   0.20  0.01  0.00  0.78  0.00  0.00  0.00  0.02  0.00
  YS02001610YS02001613    1.00   0.20  0.00  0.00  0.80  0.00  0.00  0.00  0.01  0.00
  YS02001613YS02001616    1.00   0.19  0.00  0.00  0.81  0.00  0.00  0.00  0.01  0.00
  YS02001616YS02001619    1.00   0.19  0.00  0.00  0.81  0.00  0.00  0.00  0.00  0.00
  YS02001619YS02001622    1.00   0.19  0.00  0.00  0.81  0.00  0.00  0.00  0.30  0.00
  YS02001622YS02001625    1.00   0.19  0.00  0.00  0.81  0.00  0.00  0.00  0.06  0.00
  YS02001625YS02001629    1.00   0.20  0.06  0.00  0.11  0.00  0.64  0.00  0.00  0.00
  YS02001629YS02163301    1.00   0.25  0.01  0.00  0.75  0.00  0.00  0.00  0.00  0.00
  YS02001633YS02163601    1.00   0.20  0.00  0.00  0.80  0.00  0.00  0.00  0.02  0.00
  YS02001641YS02001644    1.00   0.19  0.01  0.00  0.80  0.00  0.00  0.00  0.00  0.00
  YS02001644YS02001647    1.00   0.19  0.07  0.00  0.74  0.00  0.00  0.00  0.00  0.00
  YS02001647YS02001649    1.00   0.22  0.03  0.00  0.37  0.38  0.00  0.00  0.57  0.00
  YS02001649YS02001757    1.00   0.00  0.22  0.00  0.46  0.32  0.00  0.00  0.17  0.00
  YS02001652YS02001649    1.00   0.22  0.00  0.00  0.74  0.03  0.00  0.00  0.63  0.00
  YS02001655YS02001652    1.00   0.22  0.00  0.00  0.11  0.01  0.00  0.65  0.06  0.00
  YS02001658YS02001655    1.00   0.22  0.00  0.00  0.57  0.21  0.00  0.00  0.72  0.00
  YS02001661YS02001658    1.00   0.22  0.00  0.00  0.36  0.42  0.00  0.00  0.70  0.00
  YS02001664YS02001661    1.00   0.19  0.00  0.00  0.69  0.12  0.00  0.00  0.86  0.00
  YS02001745YS02001748    1.00   0.19  0.00  0.00  0.04  0.01  0.00  0.77  0.04  0.00
  YS02001748YS02001751    1.00   0.19  0.00  0.00  0.61  0.20  0.00  0.00  0.66  0.00
  YS02001751YS02001754    1.00   0.19  0.00  0.00  0.09  0.01  0.00  0.71  0.04  0.00
  YS02001754YS02001757    1.00   0.00  0.20  0.00  0.77  0.03  0.00  0.00  0.71  0.00
  YS02001757CaochengTiaoxuchi    1.00   0.00  0.00  0.00  0.96  0.04  0.00  0.00  0.66  0.00
  YS02001759YS02001757    1.00   0.00  0.19  0.00  0.78  0.03  0.00  0.00  0.48  0.00
  YS02001762YS02001759    1.00   0.19  0.01  0.00  0.80  0.00  0.00  0.00  0.07  0.00
  YS02001765YS02001762    1.00   0.20  0.00  0.00  0.80  0.00  0.00  0.00  0.55  0.00
  YS02001767YS02001765    1.00   0.19  0.00  0.00  0.81  0.00  0.00  0.00  0.01  0.00
  YS02001770YS02001767    1.00   0.19  0.00  0.00  0.81  0.00  0.00  0.00  0.00  0.00
  YS02001774YS02001770    1.00   0.21  0.00  0.00  0.71  0.00  0.08  0.00  0.03  0.00
  YS02001779YS02001774    1.00   0.21  0.57  0.00  0.22  0.00  0.00  0.00  0.60  0.00
  YS02001783YS02001784    1.00   0.27  0.00  0.00  0.73  0.00  0.00  0.00  0.56  0.00
  YS02001784YS02001785    1.00   0.27  0.00  0.00  0.73  0.00  0.00  0.00  0.38  0.00
  YS02001786YS02001788    1.00   0.27  0.00  0.00  0.56  0.17  0.00  0.00  0.00  0.00
  YS02001788YS02001790    1.00   0.27  0.00  0.00  0.12  0.61  0.00  0.00  0.62  0.00
  YS02001790YS02001791    1.00   0.28  0.00  0.00  0.01  0.72  0.00  0.00  0.15  0.00
  YS02001791YS02001793    1.00   0.28  0.00  0.00  0.00  0.72  0.00  0.00  0.00  0.00
  YS02001793JiankangQianchi    1.00   0.00  0.28  0.00  0.70  0.02  0.00  0.00  0.78  0.00
  YS02001882YS02001884    1.00   0.25  0.00  0.00  0.75  0.00  0.00  0.00  0.00  0.00
  YS02001884YS02001887    1.00   0.22  0.02  0.00  0.76  0.00  0.00  0.00  0.00  0.00
  YS02001887YS02001890    1.00   0.19  0.01  0.00  0.78  0.00  0.02  0.00  0.00  0.00
  YS02001890YS02001895    1.00   0.20  0.05  0.00  0.75  0.00  0.00  0.00  0.00  0.00
  YS02001895YS02001898    1.00   0.25  0.00  0.00  0.73  0.00  0.02  0.00  0.00  0.00
  YS02001898YS02001901    1.00   0.26  0.00  0.00  0.74  0.00  0.00  0.00  0.01  0.00
  YS02001901YS02001904    1.00   0.26  0.00  0.00  0.74  0.00  0.00  0.00  0.00  0.00
  YS02001904YS02001907    1.00   0.19  0.07  0.00  0.74  0.00  0.00  0.00  0.00  0.00
  YS02001907YS02006553    1.00   0.19  0.03  0.00  0.77  0.00  0.00  0.00  0.01  0.00
  YS02001910YS02001907    1.00   0.19  0.00  0.00  0.76  0.00  0.00  0.04  0.03  0.00
  YS02001915YS02001910    1.00   0.19  0.00  0.00  0.77  0.04  0.00  0.00  0.02  0.00
  YS02001918YS02001915    1.00   0.19  0.06  0.00  0.75  0.00  0.00  0.00  0.73  0.00
  YS02001920YS02001918    1.00   0.23  0.02  0.00  0.75  0.00  0.00  0.00  0.00  0.00
  YS02001923YS02001920    1.00   0.23  0.00  0.00  0.77  0.00  0.00  0.00  0.79  0.00
  YS02001926YS02001923    1.00   0.19  0.03  0.00  0.03  0.00  0.75  0.00  0.00  0.00
  YS02001929YS02001926    1.00   0.19  0.00  0.00  0.81  0.00  0.00  0.00  0.83  0.00
  YS02006553YS02006556    1.00   0.22  0.00  0.00  0.78  0.00  0.00  0.00  0.02  0.00
  YS02006556YS02006558    1.00   0.19  0.02  0.00  0.79  0.00  0.00  0.00  0.00  0.00
  YS02006558YS02006561    1.00   0.27  0.00  0.00  0.03  0.71  0.00  0.00  0.17  0.00
  YS02006561YS02001783    1.00   0.27  0.00  0.00  0.08  0.65  0.00  0.00  0.69  0.00
  YS02163301YS02001633    1.00   0.19  0.06  0.00  0.75  0.00  0.00  0.00  0.00  0.00
  YS02163601YS02164001    1.00   0.21  0.02  0.00  0.78  0.00  0.00  0.00  0.01  0.00
  YS02164001YS02001641    1.00   0.20  0.03  0.00  0.78  0.00  0.00  0.00  0.00  0.00
  
  
  *************************
  Conduit Surcharge Summary
  *************************
  
  ----------------------------------------------------------------------------
                                                           Hours        Hours 
                         --------- Hours Full --------   Above Full   Capacity
  Conduit                Both Ends  Upstream  Dnstream   Normal Flow   Limited
  ----------------------------------------------------------------------------
  WS02004401WS02004402        0.01      0.01      0.01      0.01         0.01
  WS02004402WS02004403        0.01      0.01      0.01      0.02         0.01
  WS02004404WS02004405        0.01      0.01      0.01      5.75         0.01
  WS02004405WS02004406        0.01      0.01      0.01      0.01         0.01
  WS02006109WS02006110        0.01      0.01      1.65      0.01         0.01
  WS02006110WS02006113        0.01      0.01      1.64      0.01         0.01
  WS02006111WS02006112        0.01      0.01      1.79      0.01         0.01
  WS02006112WS02006115        0.01      0.01      0.01      0.01         0.01
  WS02006113WS02006111        0.01      0.01      0.01      0.01         0.01
  WS02006115WS02006116        0.01      0.01      0.01      0.01         0.01
  WS02006116WS02004401        0.01      0.01      0.01      0.02         0.01
  WS02006228WS02006109        1.62      1.64      1.63      1.88         1.62
  WS02006229WS02006228        1.61      1.63      1.61      1.75         1.61
  WS02006230WS02006229        1.67      1.73      1.68      5.92         1.67
  WS02006231WS02006230        0.01      0.01      0.01      5.70         0.01
  WS02006232WS02006231        0.01      0.01      1.63      0.01         0.01
  WS02006234WS02006232        1.60      1.60      1.63      0.01         0.01
  WS02006235WS02006234        0.03      0.03      1.61      5.60         0.01
  WS02006238WS02006235        1.61      1.61      1.63      0.01         0.01
  WS02006239WS02006238        1.62      1.63      1.62      1.63         1.61
  WS02006240WS02006239        1.61      1.62      1.61      1.62         1.60
  WS02006242WS02006240        1.61      1.61      1.64      1.68         0.01
  WS02006243WS02006242        1.61      1.61      1.63      0.01         0.01
  WS02006245WS02006243        1.60      1.60      1.61      1.60         1.59
  WS02006247WS02006245        1.60      1.60      1.60      5.59         1.60
  WS02006248WS02006247        1.60      1.60      1.60      0.01         0.01
  WS02006249WS02006248        1.59      1.59      1.59      5.56         0.01
  WS02006251WS02006249        1.59      1.59      1.59      1.63         1.58
  WS02006252WS02006251        1.64      1.64      1.68      1.64         0.01
  WS02006256WS02006235        5.65      5.65      7.85      0.08         0.01
  YS02001580YS02001583        0.36      0.36      0.41      0.01         0.01
  YS02001583YS02001586        0.37      0.37      0.50      0.01         0.01
  YS02001586YS02001590        0.51      0.51      0.57      0.01         0.01
  YS02001590YS02001593        0.57      0.57      0.58      0.59         0.01
  YS02001593YS02001596        0.58      0.58      0.67      0.01         0.01
  YS02001596YS02001600        0.72      0.72      0.81      0.01         0.01
  YS02001600YS02001601        0.87      0.87      1.17      0.01         0.01
  YS02001601YS02001602        1.05      1.05      1.21      0.82         0.01
  YS02001602YS02001605        0.99      0.99      1.05      2.06         0.01
  YS02001605YS02001607        0.94      0.99      0.94      1.13         0.94
  YS02001607YS02001610        0.54      0.54      0.56      0.01         0.01
  YS02001610YS02001613        0.53      0.53      0.56      0.01         0.01
  YS02001613YS02001616        0.49      0.49      0.53      0.01         0.01
  YS02001616YS02001619        0.48      0.48      0.49      0.01         0.01
  YS02001619YS02001622        0.48      0.48      0.48      0.59         0.46
  YS02001622YS02001625        0.48      0.48      0.64      0.01         0.01
  YS02001625YS02001629        0.44      0.44      0.64      0.01         0.01
  YS02001629YS02163301        0.63      0.63      0.64      0.17         0.16
  YS02001633YS02163601        0.66      0.66      0.69      0.33         0.33
  YS02001641YS02001644        0.56      0.59      0.56      1.25         0.56
  YS02001644YS02001647        0.37      0.37      0.56      0.03         0.01
  YS02001647YS02001649        0.37      0.37      0.47      0.01         0.01
  YS02001649YS02001757        0.46      0.47      0.51      0.16         0.14
  YS02001652YS02001649        0.33      0.33      0.47      0.01         0.01
  YS02001655YS02001652        0.19      0.19      0.31      0.01         0.01
  YS02001658YS02001655        0.04      0.04      0.19      0.01         0.01
  YS02001661YS02001658        0.01      0.01      0.04      0.01         0.01
  YS02001745YS02001748        0.01      0.01      0.01      0.01         0.01
  YS02001748YS02001751        0.02      0.02      0.10      0.01         0.01
  YS02001751YS02001754        0.10      0.10      0.22      0.01         0.01
  YS02001754YS02001757        0.26      0.26      0.51      0.01         0.01
  YS02001757CaochengTiaoxuchi        0.50      0.51      1.57      0.25         0.21
  YS02001759YS02001757        0.43      0.43      0.51      0.01         0.01
  YS02001762YS02001759        0.40      0.40      0.43      0.01         0.01
  YS02001765YS02001762        0.36      0.36      0.40      0.01         0.01
  YS02001767YS02001765        0.34      0.34      0.36      0.01         0.01
  YS02001770YS02001767        0.33      0.33      0.34      0.36         0.24
  YS02001774YS02001770        0.32      0.32      0.39      0.01         0.01
  YS02001779YS02001774        0.23      0.23      0.39      0.01         0.01
  YS02001783YS02001784        0.34      0.37      0.34      0.50         0.34
  YS02001784YS02001785        0.25      0.34      0.25      0.70         0.25
  YS02001786YS02001788        0.01      0.25      0.01      0.60         0.01
  YS02001790YS02001791        0.01      0.01      0.01      0.33         0.01
  YS02001793JiankangQianchi        0.01      0.01      6.32      0.01         0.01
  YS02001882YS02001884        0.32      0.32      0.33      0.01         0.01
  YS02001884YS02001887        0.35      0.35      0.36      0.01         0.01
  YS02001887YS02001890        0.37      0.37      0.38      0.01         0.01
  YS02001890YS02001895        0.31      0.31      0.40      0.01         0.01
  YS02001895YS02001898        0.30      0.30      0.31      0.01         0.01
  YS02001898YS02001901        0.31      0.31      0.34      0.01         0.01
  YS02001901YS02001904        0.34      0.34      0.34      0.01         0.01
  YS02001904YS02001907        0.34      0.34      0.58      0.01         0.01
  YS02001907YS02006553        0.71      0.71      0.78      0.01         0.01
  YS02001910YS02001907        0.39      0.39      0.56      0.01         0.01
  YS02001915YS02001910        0.32      0.32      0.39      0.01         0.01
  YS02001918YS02001915        0.24      0.24      0.32      0.01         0.01
  YS02001920YS02001918        0.24      0.24      0.25      0.01         0.01
  YS02001923YS02001920        0.20      0.20      0.25      0.01         0.01
  YS02001926YS02001923        0.01      0.01      0.01      0.01         0.01
  YS02001929YS02001926        0.01      0.01      0.01      0.01         0.01
  YS02006553YS02006556        0.48      0.48      0.57      0.01         0.01
  YS02006556YS02006558        0.53      0.53      0.59      0.01         0.01
  YS02006558YS02006561        0.27      0.46      0.27      0.66         0.27
  YS02006561YS02001783        0.21      0.21      0.37      0.01         0.01
  YS02163301YS02001633        0.64      0.64      0.67      0.01         0.01
  YS02163601YS02164001        0.60      0.60      0.69      0.07         0.01
  YS02164001YS02001641        0.59      0.60      0.59      0.64         0.53
  
  
  ***************
  Pumping Summary
  ***************
  
  ---------------------------------------------------------------------------------------------------------
                                                  Min       Avg       Max     Total     Power    % Time Off
                        Percent   Number of      Flow      Flow      Flow    Volume     Usage    Pump Curve
  Pump                 Utilized   Start-Ups       LPS       LPS       LPS  10^6 ltr     Kw-hr    Low   High
  ---------------------------------------------------------------------------------------------------------
  CC-R1                   12.42           1      0.00    683.00    683.00     2.444     45.74    0.0    0.0
  CC-R2                    7.13           1      0.00    683.00    683.00     1.403     26.58    0.0    0.0
  CC-S1                   71.31          28      0.00    200.00    200.00     4.107     25.75    0.0    0.0
  CC-S2                   20.49           1      0.00    200.00    200.00     1.180      6.66    0.0    0.0
  JK-R1                    5.42          48      0.00   1000.00   1000.00     1.562     12.55    0.0    0.0
  JK-R2                    5.42          48      0.00   1000.00   1000.00     1.562     12.55    0.0    0.0
  JK-S                     1.04           1      0.00    300.00    300.00     0.090      1.48    0.0    0.0
  

  Analysis begun on:  Fri Sep  8 22:12:01 2023
  Analysis ended on:  Fri Sep  8 22:12:14 2023
  Total elapsed time: 00:00:13