
  OWA STORM WATER MANAGEMENT MODEL - VERSION v5.1.14 (OWA 2022-07-31)
  --------------------------------------------------------------

  WARNING 04: minimum elevation drop used for Conduit WS02004404WS02004405
  WARNING 03: negative offset ignored for Link YS02001904YS02001907
  
  *********************************************************
  NOTE: The summary statistics displayed in this report are
  based on results found at every computational time step,  
  not just on results from each reporting time step.
  *********************************************************
  
  ****************
  Analysis Options
  ****************
  Flow Units ............... LPS
  Process Models:
    Rainfall/Runoff ........ YES
    RDII ................... NO
    Snowmelt ............... NO
    Groundwater ............ NO
    Flow Routing ........... YES
    Ponding Allowed ........ NO
    Water Quality .......... NO
  Infiltration Method ...... HORTON
  Flow Routing Method ...... DYNWAVE
  Surcharge Method ......... EXTRAN
  Starting Date ............ 08/28/2015 08:00:00
  Ending Date .............. 08/28/2015 16:00:00
  Antecedent Dry Days ...... 8.0
  Report Time Step ......... 00:01:00
  Wet Time Step ............ 00:01:00
  Dry Time Step ............ 00:01:00
  Routing Time Step ........ 30.00 sec
  Variable Time Step ....... YES
  Maximum Trials ........... 8
  Number of Threads ........ 1
  Head Tolerance ........... 0.001500 m
  
  
  **************************        Volume         Depth
  Runoff Quantity Continuity     hectare-m            mm
  **************************     ---------       -------
  Total Precipitation ......         2.805        84.578
  Evaporation Loss .........         0.000         0.000
  Infiltration Loss ........         0.106         3.200
  Surface Runoff ...........         2.667        80.391
  Final Storage ............         0.033         0.998
  Continuity Error (%) .....        -0.012
  
  
  **************************        Volume        Volume
  Flow Routing Continuity        hectare-m      10^6 ltr
  **************************     ---------     ---------
  Dry Weather Inflow .......         0.000         0.000
  Wet Weather Inflow .......         2.667        26.671
  Groundwater Inflow .......         0.000         0.000
  RDII Inflow ..............         0.000         0.000
  External Inflow ..........         0.083         0.834
  External Outflow .........         2.415        24.151
  Flooding Loss ............         0.435         4.350
  Evaporation Loss .........         0.000         0.000
  Exfiltration Loss ........         0.000         0.000
  Initial Stored Volume ....         0.243         2.431
  Final Stored Volume ......         0.181         1.806
  Continuity Error (%) .....        -1.241
  
  
  *************************
  Highest Continuity Errors
  *************************
  Node YS02001583 (-3.83%)
  Node YS02001884 (3.61%)
  Node YS02001658 (-2.47%)
  Node YS02001774 (1.05%)
  
  
  ***************************
  Time-Step Critical Elements
  ***************************
  Link WS02006252WS02006251 (72.80%)
  Link YS02001791YS02001793 (6.64%)
  Link WS02006235WS02006234 (5.95%)
  Link WS02004404WS02004405 (3.75%)
  Link WS02006238WS02006235 (1.99%)
  
  
  ********************************
  Highest Flow Instability Indexes
  ********************************
  Link WS02006113WS02006111 (58)
  Link WS02006111WS02006112 (32)
  Link WS02004404WS02004405 (17)
  Link YS02001602YS02001605 (15)
  Link WS02004403WS02004404 (15)
  
  
  *************************
  Routing Time Step Summary
  *************************
  Minimum Time Step           :     0.02 sec
  Average Time Step           :     1.13 sec
  Maximum Time Step           :    30.00 sec
  Percent in Steady State     :    -0.00
  Average Iterations per Step :     3.12
  Percent Not Converging      :    16.24
  
  
  ***************************
  Subcatchment Runoff Summary
  ***************************
  
  ------------------------------------------------------------------------------------------------------------------------------
                            Total      Total      Total      Total     Imperv       Perv      Total       Total     Peak  Runoff
                           Precip      Runon       Evap      Infil     Runoff     Runoff     Runoff      Runoff   Runoff   Coeff
  Subcatchment                 mm         mm         mm         mm         mm         mm         mm    10^6 ltr      LPS
  ------------------------------------------------------------------------------------------------------------------------------
  sub60                     84.58       0.00       0.00       1.93      73.22       8.23      81.45        1.07   203.88   0.963
  sub61                     84.58       0.00       0.00       2.80      69.07      11.58      80.65        1.48   281.97   0.954
  sub62                     84.58       0.00       0.00       1.28      76.52       5.48      82.01        2.25   423.60   0.970
  sub63                     84.58       0.00       0.00       5.16      59.08      19.36      78.44        1.78   329.77   0.927
  sub64                     84.58       0.00       0.00       2.61      70.68      10.08      80.76        1.94   359.94   0.955
  sub65                     84.58       0.00       0.00       2.26      72.32       8.74      81.06        2.23   411.17   0.958
  sub66                     84.58       0.00       0.00       6.32      58.97      18.21      77.18        3.60   581.97   0.912
  sub67                     84.58       0.00       0.00       1.23      76.57       5.54      82.11        1.53   291.26   0.971
  sub68                     84.58       0.00       0.00       2.32      71.55       9.52      81.07        2.23   422.85   0.959
  sub69                     84.58       0.00       0.00       2.10      71.77      10.58      82.36        3.05   553.71   0.974
  sub70                     84.58       0.00       0.00       6.84      55.65      21.91      77.56        2.24   349.18   0.917
  sub71                     84.58       0.00       0.00       1.32      76.48       5.45      81.93        2.14   396.57   0.969
  sub72                     84.58       0.00       0.00       1.17      77.24       4.75      81.99        1.13   202.44   0.969
  
  
  ******************
  Node Depth Summary
  ******************
  
  ---------------------------------------------------------------------------------
                                 Average  Maximum  Maximum  Time of Max    Reported
                                   Depth    Depth      HGL   Occurrence   Max Depth
  Node                 Type       Meters   Meters   Meters  days hr:min      Meters
  ---------------------------------------------------------------------------------
  WS02003060           JUNCTION     0.25     0.38     5.31     0  02:19        0.38
  WS02003066           JUNCTION     0.21     0.29     5.85     0  02:38        0.29
  WS02003067           JUNCTION     0.54     0.69     6.01     0  02:18        0.69
  WS02003069           JUNCTION     0.28     0.42     5.00     0  02:39        0.42
  WS02003072           JUNCTION     0.35     0.49     4.86     0  02:40        0.49
  WS02003073           JUNCTION     0.20     0.29     4.36     0  02:40        0.29
  WS02004401           JUNCTION     0.63     0.86     6.86     0  02:35        0.86
  WS02004402           JUNCTION     0.67     0.90     6.86     0  02:56        0.89
  WS02004403           JUNCTION     0.69     0.92     6.85     0  02:56        0.91
  WS02004404           JUNCTION     0.77     1.04     6.89     0  02:56        0.99
  WS02004405           JUNCTION     0.75     0.96     6.81     0  02:56        0.95
  WS02004406           JUNCTION     0.77     0.95     6.78     0  02:26        0.95
  WS02004407           JUNCTION     0.20     0.29     6.61     0  02:26        0.29
  WS02004409           JUNCTION     0.43     0.65     6.42     0  02:37        0.65
  WS02004410           JUNCTION     0.46     0.66     6.38     0  02:37        0.66
  WS02004411           JUNCTION     0.48     0.67     6.35     0  02:37        0.67
  WS02004412           JUNCTION     0.50     0.68     6.32     0  02:38        0.68
  WS02004413           JUNCTION     0.66     0.84     6.31     0  02:38        0.84
  WS02006109           JUNCTION     0.68     1.54     8.16     0  01:51        1.54
  WS02006110           JUNCTION     0.68     1.45     8.04     0  00:00        1.40
  WS02006111           JUNCTION     0.19     1.67     8.37     0  00:00        0.56
  WS02006112           JUNCTION     0.79     2.68     8.56     0  00:00        1.29
  WS02006113           JUNCTION     0.29     1.50     8.40     0  00:00        0.45
  WS02006115           JUNCTION     0.51     1.69     7.83     0  00:00        0.86
  WS02006116           JUNCTION     0.60     1.11     7.15     0  00:00        0.84
  WS02006228           JUNCTION     0.67     1.64     8.29     0  00:00        1.46
  WS02006229           JUNCTION     0.64     1.42     8.11     0  01:50        1.33
  WS02006230           JUNCTION     0.63     1.70     8.45     0  01:50        1.13
  WS02006231           JUNCTION     0.44     1.30     8.42     0  01:50        0.88
  WS02006232           JUNCTION     0.58     1.42     8.46     0  01:50        1.10
  WS02006234           JUNCTION     0.50     1.45     8.61     0  02:50        1.45
  WS02006235           JUNCTION     0.53     1.70     8.87     0  02:50        1.70
  WS02006238           JUNCTION     0.56     1.77     8.92     0  02:50        1.77
  WS02006239           JUNCTION     0.53     1.86     9.07     0  02:50        1.86
  WS02006240           JUNCTION     0.50     1.81     9.10     0  02:50        1.81
  WS02006242           JUNCTION     0.58     1.55     8.82     0  02:50        1.55
  WS02006243           JUNCTION     0.48     1.48     8.90     0  02:50        1.48
  WS02006245           JUNCTION     0.48     1.52     9.00     0  02:50        1.52
  WS02006247           JUNCTION     0.51     1.43     8.93     0  02:50        1.43
  WS02006248           JUNCTION     0.47     1.10     8.69     0  01:30        1.10
  WS02006249           JUNCTION     0.50     1.09     8.69     0  01:30        1.09
  WS02006251           JUNCTION     0.50     1.56     9.23     0  02:30        1.25
  WS02006252           JUNCTION     0.39     1.50     9.74     0  01:23        0.81
  WS02006256           JUNCTION     0.86     2.35     9.28     0  01:19        2.35
  WSF200               JUNCTION     0.19     0.28     5.52     0  02:28        0.28
  YS02001580           JUNCTION     0.12     1.05     9.59     0  01:16        0.80
  YS02001583           JUNCTION     0.15     1.14     9.64     0  01:16        0.85
  YS02001586           JUNCTION     0.22     1.13     9.30     0  01:16        1.13
  YS02001590           JUNCTION     0.30     1.39     9.25     0  01:16        1.38
  YS02001593           JUNCTION     0.25     1.31     9.17     0  01:16        1.29
  YS02001596           JUNCTION     0.34     1.75     9.17     0  02:25        1.75
  YS02001600           JUNCTION     0.39     1.87     9.00     0  01:16        1.87
  YS02001601           JUNCTION     0.54     2.06     8.90     0  01:15        2.06
  YS02001602           JUNCTION     0.46     1.87     8.77     0  01:16        1.87
  YS02001605           JUNCTION     0.43     1.78     8.68     0  01:16        1.78
  YS02001607           JUNCTION     0.42     1.68     8.53     0  01:16        1.68
  YS02001610           JUNCTION     0.46     1.68     8.48     0  01:16        1.68
  YS02001613           JUNCTION     0.42     1.70     8.54     0  01:16        1.66
  YS02001616           JUNCTION     0.36     1.61     8.52     0  01:16        1.60
  YS02001619           JUNCTION     0.34     1.61     8.54     0  01:16        1.58
  YS02001622           JUNCTION     0.34     1.62     8.52     0  01:16        1.58
  YS02001625           JUNCTION     0.56     1.78     8.38     0  01:23        1.78
  YS02001629           JUNCTION     0.43     1.85     8.40     0  01:16        1.85
  YS02001633           JUNCTION     0.50     2.08     8.53     0  01:49        2.08
  YS02001641           JUNCTION     0.48     2.10     8.54     0  01:49        2.10
  YS02001644           JUNCTION     0.47     1.92     8.35     0  01:42        1.92
  YS02001647           JUNCTION     0.30     1.90     8.51     0  01:42        1.90
  YS02001649           JUNCTION     0.34     2.05     8.44     0  01:42        2.05
  YS02001652           JUNCTION     0.26     2.16     8.76     0  01:42        2.16
  YS02001655           JUNCTION     0.20     1.85     8.70     0  02:30        1.37
  YS02001658           JUNCTION     0.15     2.18     9.32     0  01:49        1.28
  YS02001661           JUNCTION     0.15     0.70     8.11     0  02:07        0.70
  YS02001664           JUNCTION     0.05     0.22     8.14     0  01:31        0.22
  YS02001745           JUNCTION     0.07     0.57     8.09     0  02:10        0.55
  YS02001748           JUNCTION     0.14     0.99     8.07     0  02:24        0.97
  YS02001751           JUNCTION     0.17     2.02     8.90     0  02:15        1.20
  YS02001754           JUNCTION     0.23     1.97     8.58     0  02:15        1.79
  YS02001757           JUNCTION     0.36     2.03     8.29     0  01:49        2.03
  YS02001759           JUNCTION     0.31     2.21     8.57     0  01:49        2.21
  YS02001762           JUNCTION     0.30     2.15     8.55     0  01:49        2.15
  YS02001765           JUNCTION     0.28     2.10     8.55     0  01:49        2.10
  YS02001767           JUNCTION     0.28     2.03     8.52     0  01:49        2.03
  YS02001770           JUNCTION     0.29     1.95     8.44     0  01:49        1.95
  YS02001774           JUNCTION     0.35     2.05     8.47     0  01:49        2.05
  YS02001779           JUNCTION     0.22     1.68     8.37     0  01:49        1.68
  YS02001783           JUNCTION     0.21     1.20     7.35     0  01:44        1.20
  YS02001784           JUNCTION     0.21     1.10     7.17     0  01:25        1.09
  YS02001786           JUNCTION     0.18     0.86     6.89     0  01:25        0.86
  YS02001788           JUNCTION     0.13     0.62     6.59     0  01:29        0.61
  YS02001790           JUNCTION     0.15     0.72     6.36     0  01:35        0.71
  YS02001791           JUNCTION     0.09     0.43     5.90     0  01:36        0.43
  YS02001793           JUNCTION     0.05     0.27     5.10     0  01:40        0.25
  YS02001882           JUNCTION     0.28     1.59     8.30     0  01:42        1.59
  YS02001884           JUNCTION     0.36     1.68     8.30     0  01:26        1.67
  YS02001887           JUNCTION     0.42     1.76     8.30     0  01:25        1.76
  YS02001890           JUNCTION     0.45     1.78     8.29     0  01:25        1.78
  YS02001895           JUNCTION     0.25     1.54     8.29     0  01:25        1.54
  YS02001898           JUNCTION     0.26     1.54     8.28     0  01:25        1.53
  YS02001901           JUNCTION     0.36     1.66     8.27     0  01:25        1.66
  YS02001904           JUNCTION     0.34     1.63     8.26     0  01:49        1.63
  YS02001907           JUNCTION     0.61     1.96     8.25     0  01:25        1.96
  YS02001910           JUNCTION     0.44     1.79     8.30     0  01:26        1.78
  YS02001915           JUNCTION     0.28     1.61     8.33     0  01:26        1.59
  YS02001918           JUNCTION     0.16     1.29     8.35     0  01:26        1.28
  YS02001920           JUNCTION     0.21     1.48     8.49     0  01:22        1.34
  YS02001923           JUNCTION     0.12     1.12     8.38     0  01:26        1.09
  YS02001926           JUNCTION     0.14     0.93     8.38     0  01:26        0.92
  YS02001929           JUNCTION     0.08     0.70     8.39     0  01:26        0.66
  YS02006553           JUNCTION     0.61     1.96     8.25     0  01:27        1.96
  YS02006556           JUNCTION     0.59     1.90     8.21     0  01:32        1.90
  YS02006558           JUNCTION     0.62     1.94     8.20     0  01:29        1.93
  YS02006561           JUNCTION     0.13     0.87     7.53     0  01:49        0.85
  YS02163301           JUNCTION     0.45     2.03     8.55     0  01:49        2.03
  YS02163601           JUNCTION     0.53     2.08     8.48     0  01:49        2.08
  YS02164001           JUNCTION     0.47     2.10     8.56     0  01:49        2.10
  CC-1                 OUTFALL      0.00     0.00     0.00     0  00:00        0.00
  CC-2                 OUTFALL      0.00     0.00     0.00     0  00:00        0.00
  JK-1                 OUTFALL      0.00     0.00     0.00     0  00:00        0.00
  JK-2                 OUTFALL      0.00     0.00     0.00     0  00:00        0.00
  WSC                  OUTFALL      0.20     0.29     0.96     0  02:41        0.29
  CC-storage           STORAGE      0.91     1.92     7.42     0  02:51        1.92
  JK-storage           STORAGE      1.44     4.20     5.00     0  03:01        4.18
  
  
  *******************
  Node Inflow Summary
  *******************
  
  -------------------------------------------------------------------------------------------------
                                  Maximum  Maximum                  Lateral       Total        Flow
                                  Lateral    Total  Time of Max      Inflow      Inflow     Balance
                                   Inflow   Inflow   Occurrence      Volume      Volume       Error
  Node                 Type           LPS      LPS  days hr:min    10^6 ltr    10^6 ltr     Percent
  -------------------------------------------------------------------------------------------------
  WS02003060           JUNCTION     16.53   530.31     0  02:18       0.476        7.96       0.029
  WS02003066           JUNCTION      0.00   513.23     0  02:38           0        7.49       0.017
  WS02003067           JUNCTION      0.00   512.98     0  02:38           0        7.49       0.055
  WS02003069           JUNCTION      0.32   531.00     0  02:39     0.00922        7.97       0.047
  WS02003072           JUNCTION      0.00   529.78     0  02:39           0        7.97       0.084
  WS02003073           JUNCTION      1.82   530.51     0  02:40      0.0524        8.01       0.067
  WS02004401           JUNCTION      0.00  1786.04     0  00:00           0         7.6       0.142
  WS02004402           JUNCTION      0.00  1248.69     0  00:01           0        7.59       0.143
  WS02004403           JUNCTION      0.00   929.44     0  00:01           0        7.57       0.140
  WS02004404           JUNCTION      0.00   877.02     0  00:01           0        7.56       0.170
  WS02004405           JUNCTION      0.00   827.31     0  00:01           0        7.55       0.058
  WS02004406           JUNCTION      0.00   768.45     0  00:02           0        7.55       0.282
  WS02004407           JUNCTION      0.00   526.22     0  02:26           0        7.53       0.013
  WS02004409           JUNCTION      0.00   525.51     0  02:26           0        7.52       0.034
  WS02004410           JUNCTION      0.00   520.92     0  02:27           0        7.52       0.057
  WS02004411           JUNCTION      0.00   518.54     0  02:27           0        7.52       0.073
  WS02004412           JUNCTION      0.00   516.59     0  02:27           0        7.51       0.096
  WS02004413           JUNCTION      0.00   514.09     0  02:18           0        7.51       0.177
  WS02006109           JUNCTION      0.00  1446.81     0  00:00           0         7.5      -0.051
  WS02006110           JUNCTION      0.00   560.74     0  01:50           0        7.47      -0.724
  WS02006111           JUNCTION      0.00  1180.41     0  00:00           0        7.52      -0.569
  WS02006112           JUNCTION      0.00  2307.30     0  00:00           0        7.57       0.000
  WS02006113           JUNCTION      0.00   572.65     0  01:51           0        7.49      -0.507
  WS02006115           JUNCTION      0.00   953.54     0  00:00           0        7.54      -0.475
  WS02006116           JUNCTION      0.00  1264.47     0  00:00           0        7.57      -0.309
  WS02006228           JUNCTION      0.00   869.18     0  00:00           0        7.48       0.003
  WS02006229           JUNCTION      0.00   560.44     0  01:50           0        7.47      -0.042
  WS02006230           JUNCTION     10.28   706.67     0  00:00       0.296        7.46       0.016
  WS02006231           JUNCTION      0.00   590.74     0  02:10           0        7.15       0.004
  WS02006232           JUNCTION      0.00   589.01     0  02:10           0        7.15       0.060
  WS02006234           JUNCTION      0.00   580.80     0  02:10           0        7.14      -0.014
  WS02006235           JUNCTION      0.00   566.77     0  02:10           0        7.14       0.023
  WS02006238           JUNCTION      0.00   427.07     0  02:55           0        6.47      -0.005
  WS02006239           JUNCTION      0.00   425.44     0  02:55           0        6.46      -0.032
  WS02006240           JUNCTION      0.00   420.85     0  03:05           0        6.46       0.004
  WS02006242           JUNCTION      0.00   421.06     0  03:05           0        6.47       0.032
  WS02006243           JUNCTION      0.00   421.20     0  02:55           0        6.47       0.002
  WS02006245           JUNCTION      0.00   421.55     0  02:55           0        6.47       0.053
  WS02006247           JUNCTION      0.00   421.88     0  02:55           0        6.47       0.011
  WS02006248           JUNCTION      0.00   422.03     0  02:55           0        6.47       0.013
  WS02006249           JUNCTION      0.00   421.89     0  02:55           0        6.67       0.050
  WS02006251           JUNCTION      0.00   405.79     0  02:30           0        6.67       0.013
  WS02006252           JUNCTION      0.00   400.00     0  01:23           0        6.66      -0.109
  WS02006256           JUNCTION      0.00   300.00     0  01:19           0        1.01      -0.452
  WSF200               JUNCTION      0.00   513.36     0  02:38           0        7.49       0.006
  YS02001580           JUNCTION      0.00    78.07     0  01:16           0     0.00449       1.958
  YS02001583           JUNCTION      0.00   120.09     0  01:16           0      0.0161      -3.686
  YS02001586           JUNCTION    349.18   349.19     0  02:05        2.24        2.25       0.057
  YS02001590           JUNCTION      0.00   318.20     0  01:42           0        2.18      -0.022
  YS02001593           JUNCTION      0.00   318.02     0  01:40           0        2.18       0.002
  YS02001596           JUNCTION      0.00   317.94     0  02:13           0        2.18      -0.017
  YS02001600           JUNCTION      0.00   317.98     0  01:39           0        2.18       0.013
  YS02001601           JUNCTION    553.71   871.42     0  01:31        3.05        5.23       0.009
  YS02001602           JUNCTION      0.00   538.89     0  01:15           0         3.3       0.009
  YS02001605           JUNCTION      0.00   539.15     0  01:15           0        2.97       0.010
  YS02001607           JUNCTION      0.00   539.38     0  01:15           0        2.97       0.064
  YS02001610           JUNCTION      0.00   548.66     0  01:16           0        2.97       0.082
  YS02001613           JUNCTION      0.00   553.58     0  01:16           0        2.55       0.072
  YS02001616           JUNCTION      0.00   560.00     0  01:16           0        2.56       0.019
  YS02001619           JUNCTION    581.97   900.83     0  01:22         3.6        6.15       0.000
  YS02001622           JUNCTION      0.00   900.62     0  01:22           0        6.14      -0.002
  YS02001625           JUNCTION      0.00   913.55     0  01:16           0        6.14       0.197
  YS02001629           JUNCTION      0.00   913.42     0  01:16           0         5.2      -0.013
  YS02001633           JUNCTION    411.17  1274.11     0  01:22        2.23        7.44       0.041
  YS02001641           JUNCTION      0.00  1273.95     0  01:22           0        7.44       0.042
  YS02001644           JUNCTION    359.94  1605.35     0  01:22        1.94        9.37       0.035
  YS02001647           JUNCTION      0.00  1605.33     0  01:23           0        9.35      -0.007
  YS02001649           JUNCTION      0.00  1875.02     0  01:20           0        11.2       0.012
  YS02001652           JUNCTION      0.00   419.67     0  01:35           0        1.83       0.117
  YS02001655           JUNCTION      0.00   478.21     0  01:32           0        1.82      -0.112
  YS02001658           JUNCTION      0.00   745.22     0  01:48           0        1.89      -2.411
  YS02001661           JUNCTION      0.00   477.71     0  01:44           0        1.89       0.160
  YS02001664           JUNCTION    329.77   329.77     0  01:31        1.78        1.78      -0.009
  YS02001745           JUNCTION    203.88   328.67     0  02:11        1.07        1.13       0.275
  YS02001748           JUNCTION      0.00   459.47     0  02:11           0        1.13      -0.513
  YS02001751           JUNCTION      0.00   331.35     0  01:53           0        1.07      -0.417
  YS02001754           JUNCTION      0.00   288.14     0  01:27           0        1.08      -0.098
  YS02001757           JUNCTION      0.00  2637.28     0  01:21           0          16       0.022
  YS02001759           JUNCTION    281.97   739.10     0  01:25        1.48        3.73      -0.027
  YS02001762           JUNCTION      0.00   461.55     0  01:25           0        2.25      -0.009
  YS02001765           JUNCTION      0.00   458.87     0  01:25           0        2.25       0.009
  YS02001767           JUNCTION      0.00   458.79     0  01:25           0        2.25      -0.003
  YS02001770           JUNCTION    423.60   465.55     0  01:25        2.25        2.31      -0.028
  YS02001774           JUNCTION      0.00    93.99     0  01:25           0      0.0878       1.064
  YS02001779           JUNCTION      0.00    97.41     0  01:25           0      0.0285      -1.417
  YS02001783           JUNCTION      0.00  1142.41     0  01:28           0        6.86      -0.000
  YS02001784           JUNCTION      0.00  1142.49     0  01:28           0        6.86       0.000
  YS02001786           JUNCTION      0.00  1142.24     0  01:28           0        6.86       0.004
  YS02001788           JUNCTION      0.00  1141.93     0  01:32           0        6.86       0.002
  YS02001790           JUNCTION      0.00  1153.37     0  01:35           0        6.86       0.014
  YS02001791           JUNCTION      0.00  1269.53     0  01:35           0        6.86      -0.029
  YS02001793           JUNCTION      0.00  1222.82     0  01:30           0        6.86       0.003
  YS02001882           JUNCTION      0.00    83.02     0  01:14           0       0.017       2.088
  YS02001884           JUNCTION      0.00   133.85     0  01:13           0      0.0542       3.742
  YS02001887           JUNCTION    291.26   300.66     0  01:20        1.53        1.56       0.277
  YS02001890           JUNCTION      0.00   301.44     0  01:20           0        1.52       0.264
  YS02001895           JUNCTION      0.00   300.57     0  01:19           0        1.52       0.173
  YS02001898           JUNCTION      0.00   314.02     0  01:19           0        1.51      -0.072
  YS02001901           JUNCTION      0.00   295.47     0  01:22           0        1.52       0.192
  YS02001904           JUNCTION      0.00   295.61     0  01:22           0        1.53       0.138
  YS02001907           JUNCTION      0.00   947.84     0  01:27           0         4.8       0.354
  YS02001910           JUNCTION      0.00   659.32     0  01:27           0        3.27       0.200
  YS02001915           JUNCTION    396.57   659.02     0  01:27        2.14        3.27       0.029
  YS02001918           JUNCTION      0.00   273.32     0  01:27           0        1.13       0.014
  YS02001920           JUNCTION      0.00   273.46     0  01:27           0        1.13       0.033
  YS02001923           JUNCTION      0.00   258.04     0  01:26           0        1.13      -0.017
  YS02001926           JUNCTION      0.00   241.07     0  01:27           0        1.13       0.036
  YS02001929           JUNCTION    202.44   202.44     0  01:32        1.13        1.13      -0.008
  YS02006553           JUNCTION      0.00   778.08     0  01:46           0         4.7       0.243
  YS02006556           JUNCTION      0.00   777.03     0  01:43           0        4.72       0.148
  YS02006558           JUNCTION    422.85  1143.43     0  01:28        2.23        6.91       0.049
  YS02006561           JUNCTION      0.00  1142.27     0  01:28           0        6.86      -0.002
  YS02163301           JUNCTION      0.00   901.41     0  01:22           0        5.21       0.025
  YS02163601           JUNCTION      0.00  1274.04     0  01:22           0        7.43       0.067
  YS02164001           JUNCTION      0.00  1274.04     0  01:22           0        7.43       0.030
  CC-1                 OUTFALL       0.00   683.00     0  01:27           0        5.43       0.000
  CC-2                 OUTFALL       0.00   683.00     0  01:33           0        4.76       0.000
  JK-1                 OUTFALL       0.00  1000.00     0  00:05           0         3.1       0.000
  JK-2                 OUTFALL       0.00  1000.00     0  00:05           0        2.86       0.000
  WSC                  OUTFALL       0.00   528.84     0  02:41           0        8.01       0.000
  CC-storage           STORAGE       0.00  2604.55     0  01:27           0        18.2      -0.172
  JK-storage           STORAGE       0.00  1233.53     0  01:30           0        7.01      -0.233
  
  
  **********************
  Node Surcharge Summary
  **********************
  
  Surcharging occurs when water rises above the top of the highest conduit.
  ---------------------------------------------------------------------
                                               Max. Height   Min. Depth
                                   Hours       Above Crown    Below Rim
  Node                 Type      Surcharged         Meters       Meters
  ---------------------------------------------------------------------
  WS02004404           JUNCTION        0.01          0.040        2.740
  WS02006109           JUNCTION        2.80          0.720        1.100
  WS02006110           JUNCTION        0.59          0.544        1.306
  WS02006111           JUNCTION        0.01          0.856        1.014
  WS02006112           JUNCTION        0.81          1.680        0.000
  WS02006113           JUNCTION        0.01          0.705        1.225
  WS02006115           JUNCTION        0.01          0.682        1.568
  WS02006116           JUNCTION        0.01          0.053        2.237
  WS02006228           JUNCTION        2.78          0.810        1.390
  WS02006229           JUNCTION        2.81          0.618        1.832
  WS02006230           JUNCTION        0.64          0.624        0.946
  WS02006231           JUNCTION        0.77          0.588        0.942
  WS02006232           JUNCTION        2.86          0.723        0.757
  WS02006234           JUNCTION        1.07          0.731        0.509
  WS02006235           JUNCTION        2.76          0.993        0.297
  WS02006238           JUNCTION        2.81          1.051        0.379
  WS02006239           JUNCTION        2.79          1.120        0.170
  WS02006240           JUNCTION        2.81          1.100        0.290
  WS02006242           JUNCTION        2.86          0.820        0.000
  WS02006243           JUNCTION        2.82          0.770        0.000
  WS02006245           JUNCTION        2.82          0.809        0.041
  WS02006247           JUNCTION        2.83          0.722        0.038
  WS02006248           JUNCTION        2.82          0.380        0.000
  WS02006249           JUNCTION        2.82          0.390        0.000
  WS02006251           JUNCTION        0.84          0.528        0.652
  WS02006252           JUNCTION        2.90          1.100        0.000
  WS02006256           JUNCTION        7.85          2.050        0.000
  YS02001580           JUNCTION        1.40          0.450        0.000
  YS02001583           JUNCTION        1.43          0.500        0.000
  YS02001586           JUNCTION        1.78          0.510        0.000
  YS02001590           JUNCTION        1.84          0.735        0.015
  YS02001593           JUNCTION        1.84          0.692        0.148
  YS02001596           JUNCTION        1.93          1.023        0.047
  YS02001600           JUNCTION        2.00          1.190        0.000
  YS02001601           JUNCTION        2.19          1.440        0.000
  YS02001602           JUNCTION        2.13          1.270        0.000
  YS02001605           JUNCTION        2.11          1.180        0.000
  YS02001607           JUNCTION        1.84          0.680        0.000
  YS02001610           JUNCTION        1.85          0.680        0.000
  YS02001613           JUNCTION        1.83          0.700        0.000
  YS02001616           JUNCTION        1.80          0.610        0.000
  YS02001619           JUNCTION        1.79          0.610        0.000
  YS02001622           JUNCTION        1.79          0.620        0.000
  YS02001625           JUNCTION        1.93          0.780        0.000
  YS02001629           JUNCTION        1.76          0.470        0.000
  YS02001633           JUNCTION        1.96          1.060        0.000
  YS02001641           JUNCTION        1.94          1.100        0.000
  YS02001644           JUNCTION        1.92          0.920        0.000
  YS02001647           JUNCTION        1.69          0.900        0.000
  YS02001649           JUNCTION        1.81          1.050        0.000
  YS02001652           JUNCTION        1.64          1.130        0.000
  YS02001655           JUNCTION        1.22          0.849        0.351
  YS02001658           JUNCTION        0.11          1.181        0.119
  YS02001751           JUNCTION        0.57          1.022        0.178
  YS02001754           JUNCTION        1.57          0.920        0.230
  YS02001757           JUNCTION        1.88          1.032        0.178
  YS02001759           JUNCTION        1.79          1.210        0.000
  YS02001762           JUNCTION        1.76          1.150        0.000
  YS02001765           JUNCTION        1.73          1.100        0.000
  YS02001767           JUNCTION        1.69          1.030        0.000
  YS02001770           JUNCTION        1.68          0.920        0.000
  YS02001774           JUNCTION        1.75          1.050        0.000
  YS02001779           JUNCTION        1.54          0.680        0.000
  YS02001783           JUNCTION        1.24          0.405        1.195
  YS02001784           JUNCTION        1.18          0.298        1.192
  YS02001786           JUNCTION        0.83          0.062        1.368
  YS02001882           JUNCTION        1.01          0.585        0.245
  YS02001884           JUNCTION        1.07          0.621        0.249
  YS02001887           JUNCTION        1.21          0.714        0.236
  YS02001890           JUNCTION        1.25          0.734        0.026
  YS02001895           JUNCTION        0.98          0.540        0.210
  YS02001898           JUNCTION        0.96          0.512        0.228
  YS02001901           JUNCTION        1.18          0.665        0.205
  YS02001904           JUNCTION        1.15          0.631        0.219
  YS02001907           JUNCTION        1.76          0.950        0.000
  YS02001910           JUNCTION        1.30          0.788        0.312
  YS02001915           JUNCTION        1.02          0.609        0.391
  YS02001918           JUNCTION        0.80          0.287        0.523
  YS02001920           JUNCTION        0.83          0.482        0.658
  YS02006553           JUNCTION        1.78          0.962        0.228
  YS02006556           JUNCTION        1.49          0.863        0.487
  YS02006558           JUNCTION        1.46          0.837        0.563
  YS02006561           JUNCTION        0.70          0.065        1.085
  YS02163301           JUNCTION        1.94          1.030        0.000
  YS02163601           JUNCTION        1.99          1.080        0.000
  YS02164001           JUNCTION        1.94          1.100        0.000
  
  
  *********************
  Node Flooding Summary
  *********************
  
  Flooding refers to all water that overflows a node, whether it ponds or not.
  --------------------------------------------------------------------------
                                                             Total   Maximum
                                 Maximum   Time of Max       Flood    Ponded
                        Hours       Rate    Occurrence      Volume     Depth
  Node                 Flooded       LPS   days hr:min    10^6 ltr    Meters
  --------------------------------------------------------------------------
  WS02006112              0.01   1405.86      0  00:00       0.047     0.000
  WS02006242              0.01      9.09      0  02:50       0.000     0.000
  WS02006243              0.01      3.53      0  02:50       0.000     0.000
  WS02006248              0.01     11.19      0  02:50       0.000     0.000
  WS02006249              0.81     82.09      0  01:50       0.193     0.000
  WS02006252              0.01      0.91      0  01:23       0.000     0.000
  WS02006256              0.93    283.68      0  01:19       0.345     0.000
  YS02001580              0.01     47.89      0  01:16       0.000     0.000
  YS02001583              0.01     91.05      0  01:16       0.000     0.000
  YS02001586              0.82     55.52      0  01:16       0.060     0.000
  YS02001600              0.01      0.69      0  01:16       0.000     0.000
  YS02001601              1.74    473.58      0  01:31       1.929     0.000
  YS02001602              1.60     62.02      0  02:02       0.333     0.000
  YS02001605              0.01      2.08      0  01:16       0.000     0.000
  YS02001607              0.01     26.64      0  01:16       0.000     0.000
  YS02001610              1.35    129.18      0  01:34       0.415     0.000
  YS02001613              0.01      6.31      0  01:16       0.000     0.000
  YS02001616              0.01     51.75      0  01:16       0.000     0.000
  YS02001619              0.01     29.64      0  01:16       0.000     0.000
  YS02001622              0.01     36.45      0  01:16       0.000     0.000
  YS02001625              1.43    353.83      0  02:07       0.936     0.000
  YS02001629              0.04     83.09      0  01:16       0.001     0.000
  YS02001633              0.01      2.82      0  01:49       0.000     0.000
  YS02001641              0.01      6.35      0  01:49       0.000     0.000
  YS02001644              0.01     23.48      0  01:49       0.000     0.000
  YS02001647              0.01     12.63      0  01:42       0.000     0.000
  YS02001649              0.01     53.93      0  01:42       0.000     0.000
  YS02001652              0.01     26.99      0  01:42       0.000     0.000
  YS02001759              0.01      3.16      0  01:49       0.000     0.000
  YS02001762              0.01      6.07      0  01:49       0.000     0.000
  YS02001765              0.01      6.41      0  01:49       0.000     0.000
  YS02001767              0.01      4.75      0  01:49       0.000     0.000
  YS02001770              0.01     10.98      0  01:49       0.000     0.000
  YS02001774              0.01      6.02      0  01:49       0.000     0.000
  YS02001779              0.01     27.49      0  01:49       0.000     0.000
  YS02001907              0.33    224.17      0  01:27       0.107     0.000
  YS02163301              0.01      2.08      0  01:49       0.000     0.000
  YS02163601              0.01     16.54      0  02:13       0.000     0.000
  YS02164001              0.01     12.30      0  01:49       0.000     0.000
  
  
  **********************
  Storage Volume Summary
  **********************
  
  --------------------------------------------------------------------------------------------------
                         Average     Avg  Evap Exfil       Maximum     Max    Time of Max    Maximum
                          Volume    Pcnt  Pcnt  Pcnt        Volume    Pcnt     Occurrence    Outflow
  Storage Unit           1000 m3    Full  Loss  Loss       1000 m3    Full    days hr:min        LPS
  --------------------------------------------------------------------------------------------------
  CC-storage               2.533      40     0     0         5.339      83       0  02:51    1766.00
  JK-storage               0.073      25     0     0         0.211      72       0  03:01    2300.00
  
  
  ***********************
  Outfall Loading Summary
  ***********************
  
  -----------------------------------------------------------
                         Flow       Avg       Max       Total
                         Freq      Flow      Flow      Volume
  Outfall Node           Pcnt       LPS       LPS    10^6 ltr
  -----------------------------------------------------------
  CC-1                  18.00    683.00    683.00       5.426
  CC-2                  16.19    683.00    683.00       4.758
  JK-1                   8.70   1000.00   1000.00       3.104
  JK-2                   8.09   1000.00   1000.00       2.858
  WSC                  100.00    267.19    528.84       8.006
  -----------------------------------------------------------
  System                30.19   3633.19    528.84      24.151
  
  
  ********************
  Link Flow Summary
  ********************
  
  -----------------------------------------------------------------------------
                                 Maximum  Time of Max   Maximum    Max/    Max/
                                  |Flow|   Occurrence   |Veloc|    Full    Full
  Link                 Type          LPS  days hr:min     m/sec    Flow   Depth
  -----------------------------------------------------------------------------
  1                    CONDUIT    528.84     0  02:41      2.79    0.18    0.29
  WS02003060WS02003069 CONDUIT    530.68     0  02:39      1.63    0.21    0.33
  WS02003066WSF200     CONDUIT    513.36     0  02:38      2.82    0.09    0.22
  WS02003067WS02003066 CONDUIT    513.23     0  02:38      1.18    0.16    0.41
  WS02003069WS02003072 CONDUIT    529.78     0  02:39      1.35    0.26    0.38
  WS02003072WS02003073 CONDUIT    528.69     0  02:40      1.41    1.14    0.37
  WS02004401WS02004402 CONDUIT   1248.69     0  00:01      2.52    1.50    0.88
  WS02004402WS02004403 CONDUIT    929.44     0  00:01      2.21    1.34    0.90
  WS02004403WS02004404 CONDUIT    877.02     0  00:01      2.01    0.63    0.96
  WS02004404WS02004405 CONDUIT    827.31     0  00:01      2.30    8.11    0.97
  WS02004405WS02004406 CONDUIT    768.45     0  00:02      2.19    1.52    0.95
  WS02004406WS02004407 CONDUIT    526.22     0  02:26      1.03    0.24    0.62
  WS02004407WS02004409 CONDUIT    525.51     0  02:26      2.06    0.19    0.47
  WS02004409WS02004410 CONDUIT    520.92     0  02:27      1.39    0.67    0.66
  WS02004410WS02004411 CONDUIT    518.54     0  02:27      1.32    0.71    0.67
  WS02004411WS02004412 CONDUIT    516.59     0  02:27      1.30    0.73    0.68
  WS02004412WS02004413 CONDUIT    514.09     0  02:18      1.26    0.34    0.76
  WS02004413WS02003067 CONDUIT    512.98     0  02:38      1.08    0.22    0.58
  WS02006109WS02006110 CONDUIT   1446.81     0  00:00      2.88    2.78    1.00
  WS02006110WS02006113 CONDUIT    572.65     0  01:51      1.39    0.52    1.00
  WS02006111WS02006112 CONDUIT   2307.30     0  00:00      9.18    1.10    1.00
  WS02006112WS02006115 CONDUIT    953.54     0  00:00      1.24    0.56    1.00
  WS02006113WS02006111 CONDUIT   1180.41     0  00:00      2.46    1.41    1.00
  WS02006115WS02006116 CONDUIT   1264.47     0  00:00      1.74    1.62    1.00
  WS02006116WS02004401 CONDUIT   1786.04     0  00:00      2.94    2.46    0.85
  WS02006228WS02006109 CONDUIT    869.18     0  00:00      1.91    3.80    1.00
  WS02006229WS02006228 CONDUIT    561.17     0  01:50      1.12    1.86    1.00
  WS02006230WS02006229 CONDUIT    696.39     0  00:00      1.89   15.50    1.00
  WS02006231WS02006230 CONDUIT    578.02     0  02:30      1.91    8.77    1.00
  WS02006232WS02006231 CONDUIT    590.74     0  02:10      1.80    1.24    1.00
  WS02006234WS02006232 CONDUIT    589.01     0  02:10      1.53    1.19    1.00
  WS02006235WS02006234 CONDUIT    580.80     0  02:10      1.51    6.13    1.00
  WS02006238WS02006235 CONDUIT    426.39     0  02:55      1.11    0.95    1.00
  WS02006239WS02006238 CONDUIT    427.07     0  02:55      1.11    1.37    1.00
  WS02006240WS02006239 CONDUIT    425.44     0  02:55      1.11    1.34    1.00
  WS02006242WS02006240 CONDUIT    420.85     0  03:05      1.09    1.67    1.00
  WS02006243WS02006242 CONDUIT    421.06     0  03:05      1.16    0.90    1.00
  WS02006245WS02006243 CONDUIT    421.20     0  02:55      1.15    1.25    1.00
  WS02006247WS02006245 CONDUIT    421.55     0  02:55      1.10    3.34    1.00
  WS02006248WS02006247 CONDUIT    421.88     0  02:55      1.17    0.92    1.00
  WS02006249WS02006248 CONDUIT    422.03     0  02:55      1.26    2.31    1.00
  WS02006251WS02006249 CONDUIT    421.89     0  02:55      1.75    1.22    1.00
  WS02006252WS02006251 CONDUIT    405.79     0  02:30     19.66    1.49    1.00
  WS02006256WS02006235 CONDUIT    247.68     0  01:19      3.50    2.62    1.00
  WSF200WS02003060     CONDUIT    513.78     0  02:18      2.04    0.11    0.27
  YS02001580YS02001583 CONDUIT     78.07     0  01:16      0.56    0.30    1.00
  YS02001583YS02001586 CONDUIT    120.09     0  01:16      0.52    0.18    1.00
  YS02001586YS02001590 CONDUIT    318.20     0  01:42      1.26    0.56    1.00
  YS02001590YS02001593 CONDUIT    318.02     0  01:40      1.12    2.00    1.00
  YS02001593YS02001596 CONDUIT    317.94     0  02:13      1.66    0.50    1.00
  YS02001596YS02001600 CONDUIT    317.98     0  01:39      1.23    0.62    1.00
  YS02001600YS02001601 CONDUIT    317.96     0  01:44      1.12    0.55    1.00
  YS02001601YS02001602 CONDUIT    538.89     0  01:15      1.91    1.95    1.00
  YS02001602YS02001605 CONDUIT    539.15     0  01:15      1.91   11.41    1.00
  YS02001605YS02001607 CONDUIT    539.38     0  01:15      1.91    2.96    1.00
  YS02001607YS02001610 CONDUIT    548.66     0  01:16      0.75    0.52    1.00
  YS02001610YS02001613 CONDUIT    553.58     0  01:16      0.71    0.64    1.00
  YS02001613YS02001616 CONDUIT    560.00     0  01:16      0.75    0.48    1.00
  YS02001616YS02001619 CONDUIT    532.33     0  01:16      0.81    0.92    1.00
  YS02001619YS02001622 CONDUIT    900.62     0  01:22      1.69    1.33    1.00
  YS02001622YS02001625 CONDUIT    913.55     0  01:16      1.16    0.49    1.00
  YS02001625YS02001629 CONDUIT    913.42     0  01:16      1.18    0.43    1.00
  YS02001629YS02163301 CONDUIT    901.41     0  01:22      1.15    1.11    1.00
  YS02001633YS02163601 CONDUIT   1274.04     0  01:22      1.62    1.34    1.00
  YS02001641YS02001644 CONDUIT   1274.08     0  01:22      1.62    4.12    1.00
  YS02001644YS02001647 CONDUIT   1605.33     0  01:23      2.11    0.94    1.00
  YS02001647YS02001649 CONDUIT   1618.79     0  01:23      2.30    0.85    1.00
  YS02001649YS02001757 CONDUIT   1861.80     0  01:22      2.56    1.13    1.00
  YS02001652YS02001649 CONDUIT    422.06     0  01:35      1.24    0.21    1.00
  YS02001655YS02001652 CONDUIT    419.67     0  01:35      1.71    0.20    1.00
  YS02001658YS02001655 CONDUIT    478.21     0  01:32      1.90    0.20    1.00
  YS02001661YS02001658 CONDUIT    745.22     0  01:48      2.13    0.29    0.77
  YS02001664YS02001661 CONDUIT    329.74     0  01:31      1.95    0.10    0.45
  YS02001745YS02001748 CONDUIT    459.47     0  02:11      1.96    0.18    0.63
  YS02001748YS02001751 CONDUIT    331.35     0  01:53      1.63    0.17    1.00
  YS02001751YS02001754 CONDUIT    288.14     0  01:27      1.58    0.14    1.00
  YS02001754YS02001757 CONDUIT    287.07     0  01:37      1.00    0.12    1.00
  YS02001757CaochengTiaoxuchi CONDUIT   2604.55     0  01:27      3.41    1.13    1.00
  YS02001759YS02001757 CONDUIT    740.69     0  01:25      1.31    0.53    1.00
  YS02001762YS02001759 CONDUIT    463.43     0  01:25      0.72    0.53    1.00
  YS02001765YS02001762 CONDUIT    461.55     0  01:25      0.84    0.43    1.00
  YS02001767YS02001765 CONDUIT    458.87     0  01:25      0.94    0.58    1.00
  YS02001770YS02001767 CONDUIT    458.79     0  01:25      0.90    1.82    1.00
  YS02001774YS02001770 CONDUIT     93.99     0  01:25      0.67    0.06    1.00
  YS02001779YS02001774 CONDUIT     97.41     0  01:25      0.17    0.05    1.00
  YS02001783YS02001784 CONDUIT   1142.49     0  01:28      2.27    1.57    1.00
  YS02001784YS02001785 CONDUIT   1142.24     0  01:28      2.27    2.66    1.00
  YS02001786YS02001788 CONDUIT   1141.93     0  01:32      2.45    2.20    0.88
  YS02001788YS02001790 CONDUIT   1153.37     0  01:35      2.70    0.85    0.83
  YS02001790YS02001791 CONDUIT   1269.53     0  01:35      3.41    1.38    0.70
  YS02001791YS02001793 CONDUIT   1222.82     0  01:30      6.75    0.53    0.43
  YS02001793JiankangQianchi CONDUIT   1233.53     0  01:30      2.46    0.10    0.64
  YS02001882YS02001884 CONDUIT     83.02     0  01:14      0.39    0.10    1.00
  YS02001884YS02001887 CONDUIT    133.85     0  01:13      0.35    0.18    1.00
  YS02001887YS02001890 CONDUIT    301.44     0  01:20      0.48    0.52    1.00
  YS02001890YS02001895 CONDUIT    300.57     0  01:19      0.44    0.14    1.00
  YS02001895YS02001898 CONDUIT    314.02     0  01:19      0.72    0.54    1.00
  YS02001898YS02001901 CONDUIT    295.47     0  01:22      0.71    0.19    1.00
  YS02001901YS02001904 CONDUIT    295.61     0  01:22      0.39    0.46    1.00
  YS02001904YS02001907 CONDUIT    296.38     0  01:22      0.38    0.10    1.00
  YS02001907YS02006553 CONDUIT    778.08     0  01:46      0.86    0.92    1.00
  YS02001910YS02001907 CONDUIT    659.06     0  01:27      0.84    0.37    1.00
  YS02001915YS02001910 CONDUIT    659.32     0  01:27      1.24    0.33    1.00
  YS02001918YS02001915 CONDUIT    273.53     0  01:27      0.45    0.15    1.00
  YS02001920YS02001918 CONDUIT    273.32     0  01:27      0.70    0.26    1.00
  YS02001923YS02001920 CONDUIT    273.46     0  01:27      0.80    0.12    1.00
  YS02001926YS02001923 CONDUIT    258.04     0  01:26      0.92    0.37    0.92
  YS02001929YS02001926 CONDUIT    241.07     0  01:27      1.03    0.11    0.81
  YS02006553YS02006556 CONDUIT    777.03     0  01:43      0.99    0.66    1.00
  YS02006556YS02006558 CONDUIT    778.30     0  01:49      0.99    0.61    1.00
  YS02006558YS02006561 CONDUIT   1142.27     0  01:28      4.04    2.52    1.00
  YS02006561YS02001783 CONDUIT   1142.41     0  01:28      2.27    0.59    1.00
  YS02163301YS02001633 CONDUIT    901.82     0  01:22      1.15    0.85    1.00
  YS02163601YS02164001 CONDUIT   1274.04     0  01:22      1.62    1.13    1.00
  YS02164001YS02001641 CONDUIT   1273.95     0  01:22      1.62    1.74    1.00
  CC-R1                PUMP       683.00     0  01:27              1.00
  CC-R2                PUMP       683.00     0  01:33              1.00
  CC-S1                PUMP       200.00     0  00:05              1.00
  CC-S2                PUMP       200.00     0  01:23              1.00
  JK-R1                PUMP      1000.00     0  00:05              1.00
  JK-R2                PUMP      1000.00     0  00:05              1.00
  JK-S                 PUMP       300.00     0  01:19              1.00
  
  
  ***************************
  Flow Classification Summary
  ***************************
  
  -------------------------------------------------------------------------------------
                      Adjusted    ---------- Fraction of Time in Flow Class ---------- 
                       /Actual         Up    Down  Sub   Sup   Up    Down  Norm  Inlet 
  Conduit               Length    Dry  Dry   Dry   Crit  Crit  Crit  Crit  Ltd   Ctrl  
  -------------------------------------------------------------------------------------
  1                       1.00   0.00  0.00  0.00  0.00  1.00  0.00  0.00  0.24  0.00
  WS02003060WS02003069    1.00   0.00  0.00  0.00  0.99  0.01  0.00  0.00  0.56  0.00
  WS02003066WSF200        1.00   0.02  0.00  0.00  0.00  0.98  0.00  0.00  0.89  0.00
  WS02003067WS02003066    1.00   0.01  0.01  0.00  0.98  0.00  0.00  0.00  0.00  0.00
  WS02003069WS02003072    1.00   0.00  0.00  0.00  1.00  0.00  0.00  0.00  0.62  0.00
  WS02003072WS02003073    1.00   0.00  0.00  0.00  0.00  0.00  0.00  1.00  0.00  0.00
  WS02004401WS02004402    1.00   0.00  0.00  0.00  1.00  0.00  0.00  0.00  0.00  0.00
  WS02004402WS02004403    1.00   0.00  0.00  0.00  1.00  0.00  0.00  0.00  0.00  0.00
  WS02004403WS02004404    1.00   0.00  0.00  0.00  1.00  0.00  0.00  0.00  0.00  0.00
  WS02004404WS02004405    1.00   0.00  0.00  0.00  1.00  0.00  0.00  0.00  0.02  0.00
  WS02004405WS02004406    1.00   0.00  0.00  0.00  1.00  0.00  0.00  0.00  0.00  0.00
  WS02004406WS02004407    1.00   0.00  0.00  0.00  1.00  0.00  0.00  0.00  0.00  0.00
  WS02004407WS02004409    1.00   0.00  0.00  0.00  1.00  0.00  0.00  0.00  0.99  0.00
  WS02004409WS02004410    1.00   0.00  0.00  0.00  1.00  0.00  0.00  0.00  0.00  0.00
  WS02004410WS02004411    1.00   0.00  0.00  0.00  1.00  0.00  0.00  0.00  0.00  0.00
  WS02004411WS02004412    1.00   0.00  0.00  0.00  1.00  0.00  0.00  0.00  0.00  0.00
  WS02004412WS02004413    1.00   0.00  0.00  0.00  0.99  0.00  0.00  0.00  0.00  0.00
  WS02004413WS02003067    1.00   0.00  0.01  0.00  0.00  0.00  0.99  0.00  0.00  0.00
  WS02006109WS02006110    1.00   0.00  0.00  0.00  1.00  0.00  0.00  0.00  0.00  0.00
  WS02006110WS02006113    1.00   0.00  0.00  0.00  1.00  0.00  0.00  0.00  0.00  0.00
  WS02006111WS02006112    1.00   0.00  0.00  0.00  1.00  0.00  0.00  0.00  1.00  0.00
  WS02006112WS02006115    1.00   0.00  0.00  0.00  1.00  0.00  0.00  0.00  0.00  0.00
  WS02006113WS02006111    1.00   0.00  0.00  0.00  0.00  1.00  0.00  0.00  0.20  0.00
  WS02006115WS02006116    1.00   0.00  0.00  0.00  1.00  0.00  0.00  0.00  0.00  0.00
  WS02006116WS02004401    1.00   0.00  0.00  0.00  1.00  0.00  0.00  0.00  0.00  0.00
  WS02006228WS02006109    1.00   0.00  0.00  0.00  1.00  0.00  0.00  0.00  0.00  0.00
  WS02006229WS02006228    1.00   0.00  0.00  0.00  1.00  0.00  0.00  0.00  0.00  0.00
  WS02006230WS02006229    1.00   0.00  0.00  0.00  1.00  0.00  0.00  0.00  0.00  0.00
  WS02006231WS02006230    1.00   0.00  0.00  0.00  0.24  0.00  0.76  0.00  0.00  0.00
  WS02006232WS02006231    1.00   0.00  0.00  0.00  1.00  0.00  0.00  0.00  0.00  0.00
  WS02006234WS02006232    1.00   0.00  0.00  0.00  1.00  0.00  0.00  0.00  0.00  0.00
  WS02006235WS02006234    1.00   0.00  0.00  0.00  0.98  0.00  0.02  0.00  0.00  0.00
  WS02006238WS02006235    1.00   0.00  0.00  0.00  1.00  0.00  0.00  0.00  0.00  0.00
  WS02006239WS02006238    1.00   0.00  0.00  0.00  1.00  0.00  0.00  0.00  0.00  0.00
  WS02006240WS02006239    1.00   0.01  0.00  0.00  0.94  0.00  0.00  0.04  0.00  0.00
  WS02006242WS02006240    1.00   0.01  0.00  0.00  0.98  0.00  0.01  0.00  0.00  0.00
  WS02006243WS02006242    1.00   0.01  0.00  0.00  0.98  0.00  0.00  0.01  0.18  0.00
  WS02006245WS02006243    1.00   0.01  0.00  0.00  0.98  0.00  0.00  0.02  0.00  0.00
  WS02006247WS02006245    1.00   0.00  0.00  0.00  0.99  0.00  0.00  0.01  0.00  0.00
  WS02006248WS02006247    1.00   0.00  0.00  0.00  0.99  0.00  0.00  0.01  0.18  0.00
  WS02006249WS02006248    1.00   0.00  0.00  0.00  0.94  0.00  0.05  0.00  0.00  0.00
  WS02006251WS02006249    1.00   0.00  0.00  0.00  1.00  0.00  0.00  0.00  0.16  0.00
  WS02006252WS02006251    1.00   0.00  0.04  0.00  0.08  0.00  0.88  0.00  0.00  0.00
  WS02006256WS02006235    1.00   0.00  0.00  0.00  1.00  0.00  0.00  0.00  0.00  0.00
  WSF200WS02003060        1.00   0.00  0.02  0.00  0.03  0.95  0.00  0.00  0.37  0.00
  YS02001580YS02001583    1.00   0.24  0.53  0.00  0.23  0.00  0.00  0.00  0.61  0.00
  YS02001583YS02001586    1.00   0.36  0.39  0.00  0.25  0.00  0.00  0.00  0.62  0.00
  YS02001586YS02001590    1.00   0.19  0.00  0.00  0.42  0.06  0.00  0.33  0.27  0.00
  YS02001590YS02001593    1.00   0.19  0.00  0.00  0.20  0.00  0.60  0.00  0.00  0.00
  YS02001593YS02001596    1.00   0.20  0.00  0.00  0.21  0.01  0.00  0.59  0.01  0.00
  YS02001596YS02001600    1.00   0.20  0.00  0.00  0.23  0.00  0.00  0.56  0.03  0.00
  YS02001600YS02001601    1.00   0.19  0.01  0.00  0.80  0.00  0.00  0.00  0.55  0.00
  YS02001601YS02001602    1.00   0.19  0.00  0.00  0.80  0.00  0.00  0.00  0.00  0.00
  YS02001602YS02001605    1.00   0.20  0.00  0.00  0.80  0.00  0.00  0.00  0.00  0.00
  YS02001605YS02001607    1.00   0.20  0.00  0.00  0.80  0.00  0.00  0.00  0.00  0.00
  YS02001607YS02001610    1.00   0.20  0.00  0.00  0.80  0.00  0.00  0.00  0.00  0.00
  YS02001610YS02001613    1.00   0.20  0.00  0.00  0.80  0.00  0.00  0.00  0.00  0.00
  YS02001613YS02001616    1.00   0.19  0.00  0.00  0.80  0.00  0.00  0.00  0.00  0.00
  YS02001616YS02001619    1.00   0.19  0.00  0.00  0.81  0.00  0.00  0.00  0.00  0.00
  YS02001619YS02001622    1.00   0.19  0.00  0.00  0.80  0.01  0.00  0.00  0.27  0.00
  YS02001622YS02001625    1.00   0.19  0.00  0.00  0.80  0.01  0.00  0.00  0.01  0.00
  YS02001625YS02001629    1.00   0.20  0.03  0.00  0.21  0.00  0.57  0.00  0.00  0.00
  YS02001629YS02163301    1.00   0.20  0.01  0.00  0.79  0.00  0.00  0.00  0.00  0.00
  YS02001633YS02163601    1.00   0.20  0.00  0.00  0.80  0.00  0.00  0.00  0.00  0.00
  YS02001641YS02001644    1.00   0.19  0.00  0.00  0.81  0.00  0.00  0.00  0.00  0.00
  YS02001644YS02001647    1.00   0.19  0.02  0.00  0.79  0.00  0.00  0.00  0.00  0.00
  YS02001647YS02001649    1.00   0.20  0.01  0.00  0.53  0.26  0.00  0.00  0.57  0.00
  YS02001649YS02001757    1.00   0.00  0.20  0.00  0.60  0.19  0.00  0.00  0.12  0.00
  YS02001652YS02001649    1.00   0.20  0.00  0.00  0.78  0.02  0.00  0.00  0.52  0.00
  YS02001655YS02001652    1.00   0.20  0.00  0.00  0.23  0.00  0.00  0.57  0.04  0.00
  YS02001658YS02001655    1.00   0.20  0.00  0.00  0.72  0.08  0.00  0.00  0.60  0.00
  YS02001661YS02001658    1.00   0.20  0.00  0.00  0.54  0.26  0.00  0.00  0.62  0.00
  YS02001664YS02001661    1.00   0.19  0.00  0.00  0.72  0.09  0.00  0.00  0.87  0.00
  YS02001745YS02001748    1.00   0.19  0.00  0.00  0.16  0.00  0.00  0.64  0.05  0.00
  YS02001748YS02001751    1.00   0.19  0.00  0.00  0.73  0.08  0.00  0.00  0.59  0.00
  YS02001751YS02001754    1.00   0.19  0.00  0.00  0.22  0.00  0.00  0.58  0.03  0.00
  YS02001754YS02001757    1.00   0.00  0.20  0.00  0.79  0.01  0.00  0.00  0.53  0.00
  YS02001757CaochengTiaoxuchi    1.00   0.00  0.00  0.00  0.97  0.03  0.00  0.00  0.51  0.00
  YS02001759YS02001757    1.00   0.00  0.19  0.00  0.79  0.02  0.00  0.00  0.40  0.00
  YS02001762YS02001759    1.00   0.19  0.01  0.00  0.80  0.00  0.00  0.00  0.02  0.00
  YS02001765YS02001762    1.00   0.20  0.00  0.00  0.80  0.00  0.00  0.00  0.47  0.00
  YS02001767YS02001765    1.00   0.19  0.00  0.00  0.81  0.00  0.00  0.00  0.01  0.00
  YS02001770YS02001767    1.00   0.19  0.00  0.00  0.81  0.00  0.00  0.00  0.00  0.00
  YS02001774YS02001770    1.00   0.20  0.00  0.00  0.68  0.01  0.12  0.00  0.00  0.00
  YS02001779YS02001774    1.00   0.20  0.50  0.00  0.30  0.00  0.00  0.00  0.54  0.00
  YS02001783YS02001784    1.00   0.22  0.00  0.00  0.78  0.00  0.00  0.00  0.54  0.00
  YS02001784YS02001785    1.00   0.22  0.00  0.00  0.78  0.00  0.00  0.00  0.35  0.00
  YS02001786YS02001788    1.00   0.22  0.00  0.00  0.65  0.13  0.00  0.00  0.00  0.00
  YS02001788YS02001790    1.00   0.22  0.00  0.00  0.18  0.60  0.00  0.00  0.60  0.00
  YS02001790YS02001791    1.00   0.23  0.00  0.00  0.00  0.77  0.00  0.00  0.13  0.00
  YS02001791YS02001793    1.00   0.23  0.00  0.00  0.00  0.77  0.00  0.00  0.01  0.00
  YS02001793JiankangQianchi    1.00   0.00  0.23  0.00  0.72  0.05  0.00  0.00  0.83  0.00
  YS02001882YS02001884    1.00   0.21  0.00  0.00  0.79  0.00  0.00  0.00  0.00  0.00
  YS02001884YS02001887    1.00   0.20  0.00  0.00  0.80  0.00  0.00  0.00  0.00  0.00
  YS02001887YS02001890    1.00   0.19  0.00  0.00  0.80  0.00  0.01  0.00  0.00  0.00
  YS02001890YS02001895    1.00   0.20  0.01  0.00  0.79  0.00  0.00  0.00  0.00  0.00
  YS02001895YS02001898    1.00   0.21  0.00  0.00  0.78  0.00  0.01  0.00  0.00  0.00
  YS02001898YS02001901    1.00   0.21  0.00  0.00  0.78  0.00  0.00  0.00  0.00  0.00
  YS02001901YS02001904    1.00   0.21  0.00  0.00  0.79  0.00  0.00  0.00  0.00  0.00
  YS02001904YS02001907    1.00   0.19  0.02  0.00  0.79  0.00  0.00  0.00  0.00  0.00
  YS02001907YS02006553    1.00   0.19  0.01  0.00  0.80  0.00  0.00  0.00  0.00  0.00
  YS02001910YS02001907    1.00   0.19  0.00  0.00  0.79  0.00  0.00  0.01  0.00  0.00
  YS02001915YS02001910    1.00   0.19  0.00  0.00  0.78  0.02  0.00  0.00  0.00  0.00
  YS02001918YS02001915    1.00   0.19  0.02  0.00  0.79  0.00  0.00  0.00  0.63  0.00
  YS02001920YS02001918    1.00   0.20  0.01  0.00  0.79  0.00  0.00  0.00  0.00  0.00
  YS02001923YS02001920    1.00   0.20  0.00  0.00  0.79  0.01  0.00  0.00  0.69  0.00
  YS02001926YS02001923    1.00   0.19  0.01  0.00  0.10  0.00  0.70  0.00  0.00  0.00
  YS02001929YS02001926    1.00   0.19  0.00  0.00  0.79  0.01  0.00  0.00  0.75  0.00
  YS02006553YS02006556    1.00   0.20  0.00  0.00  0.80  0.00  0.00  0.00  0.00  0.00
  YS02006556YS02006558    1.00   0.19  0.00  0.00  0.80  0.00  0.00  0.00  0.00  0.00
  YS02006558YS02006561    1.00   0.22  0.00  0.00  0.09  0.70  0.00  0.00  0.12  0.00
  YS02006561YS02001783    1.00   0.22  0.00  0.00  0.18  0.60  0.00  0.00  0.61  0.00
  YS02163301YS02001633    1.00   0.19  0.01  0.00  0.80  0.00  0.00  0.00  0.00  0.00
  YS02163601YS02164001    1.00   0.20  0.01  0.00  0.80  0.00  0.00  0.00  0.00  0.00
  YS02164001YS02001641    1.00   0.19  0.01  0.00  0.80  0.00  0.00  0.00  0.00  0.00
  
  
  *************************
  Conduit Surcharge Summary
  *************************
  
  ----------------------------------------------------------------------------
                                                           Hours        Hours 
                         --------- Hours Full --------   Above Full   Capacity
  Conduit                Both Ends  Upstream  Dnstream   Normal Flow   Limited
  ----------------------------------------------------------------------------
  WS02003072WS02003073        0.01      0.01      0.01      1.45         0.01
  WS02004401WS02004402        0.01      0.01      0.01      0.01         0.01
  WS02004402WS02004403        0.01      0.01      0.01      0.02         0.01
  WS02004403WS02004404        0.01      0.01      0.01      0.01         0.01
  WS02004404WS02004405        0.01      0.01      0.01      6.44         0.01
  WS02004405WS02004406        0.01      0.01      0.01      0.44         0.01
  WS02006109WS02006110        0.59      0.59      2.88      0.77         0.01
  WS02006110WS02006113        0.01      0.01      2.84      0.01         0.01
  WS02006111WS02006112        0.01      0.01      3.08      0.01         0.01
  WS02006112WS02006115        0.01      0.01      0.80      0.01         0.01
  WS02006113WS02006111        0.01      0.01      0.01      0.01         0.01
  WS02006115WS02006116        0.01      0.01      0.01      0.01         0.01
  WS02006116WS02004401        0.01      0.01      0.01      0.02         0.01
  WS02006228WS02006109        2.79      2.87      2.80      3.13         2.79
  WS02006229WS02006228        2.78      2.81      2.78      3.01         2.77
  WS02006230WS02006229        2.93      2.99      2.94      6.51         2.93
  WS02006231WS02006230        0.64      0.64      0.82      6.39         0.01
  WS02006232WS02006231        0.77      0.77      2.86      0.84         0.01
  WS02006234WS02006232        2.71      2.71      2.86      0.83         0.81
  WS02006235WS02006234        1.06      1.07      2.76      6.34         0.02
  WS02006238WS02006235        2.78      2.78      2.87      0.01         0.01
  WS02006239WS02006238        2.81      2.84      2.81      2.87         2.58
  WS02006240WS02006239        2.79      2.82      2.79      2.86         2.51
  WS02006242WS02006240        2.81      2.81      2.87      2.92         0.01
  WS02006243WS02006242        2.83      2.83      2.86      0.01         0.05
  WS02006245WS02006243        2.82      2.82      2.82      2.14         2.24
  WS02006247WS02006245        2.82      2.84      2.82      6.34         2.80
  WS02006248WS02006247        2.82      2.82      2.83      0.01         0.05
  WS02006249WS02006248        2.82      2.82      2.82      6.33         0.02
  WS02006251WS02006249        2.82      2.82      2.82      2.84         2.75
  WS02006252WS02006251        2.87      2.87      2.89      2.87         0.01
  WS02006256WS02006235        6.33      6.36      7.83      0.93         0.01
  YS02001580YS02001583        1.40      1.40      1.64      0.01         0.01
  YS02001583YS02001586        1.43      1.43      1.78      0.01         0.01
  YS02001586YS02001590        1.79      1.79      1.84      0.01         0.01
  YS02001590YS02001593        1.84      1.84      1.86      1.83         0.01
  YS02001593YS02001596        1.86      1.86      1.93      0.01         0.01
  YS02001596YS02001600        1.96      1.96      2.00      0.01         0.01
  YS02001600YS02001601        2.04      2.04      2.19      0.01         0.01
  YS02001601YS02001602        2.13      2.13      2.21      2.00         0.01
  YS02001602YS02001605        2.11      2.11      2.13      2.70         0.01
  YS02001605YS02001607        2.09      2.11      2.10      2.11         2.05
  YS02001607YS02001610        1.84      1.84      1.85      0.01         0.01
  YS02001610YS02001613        1.83      1.83      1.85      0.01         0.01
  YS02001613YS02001616        1.80      1.80      1.83      0.01         0.01
  YS02001616YS02001619        1.79      1.79      1.80      0.01         0.01
  YS02001619YS02001622        1.79      1.79      1.79      1.79         1.44
  YS02001622YS02001625        1.79      1.79      1.93      0.01         0.01
  YS02001625YS02001629        1.76      1.76      1.93      0.01         0.01
  YS02001629YS02163301        1.93      1.93      1.94      0.15         0.28
  YS02001633YS02163601        1.96      1.96      1.99      0.40         0.70
  YS02001641YS02001644        1.92      1.94      1.92      2.23         1.90
  YS02001644YS02001647        1.69      1.69      1.92      0.01         0.01
  YS02001647YS02001649        1.69      1.69      1.81      0.01         0.01
  YS02001649YS02001757        1.80      1.81      1.88      0.29         0.29
  YS02001652YS02001649        1.66      1.66      1.81      0.01         0.01
  YS02001655YS02001652        1.21      1.21      1.64      0.01         0.01
  YS02001658YS02001655        0.09      0.09      1.21      0.01         0.01
  YS02001661YS02001658        0.01      0.01      0.09      0.01         0.01
  YS02001748YS02001751        0.01      0.01      0.57      0.01         0.01
  YS02001751YS02001754        0.56      0.56      1.57      0.01         0.01
  YS02001754YS02001757        1.61      1.61      1.88      0.01         0.01
  YS02001757CaochengTiaoxuchi        1.87      1.88      2.84      0.48         0.40
  YS02001759YS02001757        1.79      1.79      1.88      0.01         0.01
  YS02001762YS02001759        1.76      1.76      1.79      0.01         0.02
  YS02001765YS02001762        1.73      1.73      1.76      0.01         0.01
  YS02001767YS02001765        1.69      1.69      1.73      0.01         0.02
  YS02001770YS02001767        1.68      1.69      1.69      1.33         0.96
  YS02001774YS02001770        1.68      1.68      1.75      0.01         0.01
  YS02001779YS02001774        1.54      1.54      1.75      0.01         0.01
  YS02001783YS02001784        1.18      1.24      1.18      1.54         1.18
  YS02001784YS02001785        0.83      1.18      0.83      1.88         0.83
  YS02001786YS02001788        0.01      0.83      0.01      1.81         0.01
  YS02001790YS02001791        0.01      0.01      0.01      1.11         0.01
  YS02001793JiankangQianchi        0.01      0.01      6.82      0.01         0.01
  YS02001882YS02001884        1.01      1.01      1.07      0.01         0.01
  YS02001884YS02001887        1.18      1.18      1.21      0.01         0.01
  YS02001887YS02001890        1.25      1.25      1.27      0.01         0.01
  YS02001890YS02001895        0.98      0.98      1.30      0.01         0.01
  YS02001895YS02001898        0.96      0.96      0.98      0.01         0.01
  YS02001898YS02001901        0.99      0.99      1.18      0.01         0.01
  YS02001901YS02001904        1.15      1.15      1.18      0.01         0.01
  YS02001904YS02001907        1.15      1.15      1.79      0.01         0.01
  YS02001907YS02006553        1.89      1.89      1.91      0.01         0.01
  YS02001910YS02001907        1.30      1.30      1.76      0.01         0.01
  YS02001915YS02001910        1.02      1.02      1.30      0.01         0.01
  YS02001918YS02001915        0.80      0.80      1.02      0.01         0.01
  YS02001920YS02001918        0.80      0.80      0.83      0.01         0.01
  YS02001923YS02001920        0.40      0.40      0.83      0.01         0.01
  YS02006553YS02006556        1.49      1.49      1.78      0.01         0.01
  YS02006556YS02006558        1.64      1.64      1.80      0.01         0.01
  YS02006558YS02006561        0.88      1.46      0.88      1.86         0.88
  YS02006561YS02001783        0.70      0.70      1.24      0.01         0.01
  YS02163301YS02001633        1.94      1.94      1.97      0.01         0.01
  YS02163601YS02164001        1.94      1.94      1.99      0.17         0.01
  YS02164001YS02001641        1.93      1.94      1.94      1.85         1.69
  
  
  ***************
  Pumping Summary
  ***************
  
  ---------------------------------------------------------------------------------------------------------
                                                  Min       Avg       Max     Total     Power    % Time Off
                        Percent   Number of      Flow      Flow      Flow    Volume     Usage    Pump Curve
  Pump                 Utilized   Start-Ups       LPS       LPS       LPS  10^6 ltr     Kw-hr    Low   High
  ---------------------------------------------------------------------------------------------------------
  CC-R1                   27.58           1      0.00    683.00    683.00     5.425    106.23    0.0    0.0
  CC-R2                   24.19           1      0.00    683.00    683.00     4.758     93.91    0.0    0.0
  CC-S1                   79.98          19      0.00    200.00    200.00     4.607     26.49    0.0    0.0
  CC-S2                   35.82           1      0.00    200.00    200.00     2.063     10.09    0.0    0.0
  JK-R1                   10.80          54      0.00   1000.00   1000.00     3.112     26.88    0.0    0.0
  JK-R2                    9.95          53      0.00   1000.00   1000.00     2.866     24.45    0.0    0.0
  JK-S                    11.67          11      0.00    300.00    300.00     1.008     16.60    0.0    0.0
  

  Analysis begun on:  Fri Sep  8 22:11:29 2023
  Analysis ended on:  Fri Sep  8 22:11:44 2023
  Total elapsed time: 00:00:15