
  OWA STORM WATER MANAGEMENT MODEL - VERSION v5.2.3 (OWA 2023-06-06)
  ------------------------------------------------------------

  WARNING 04: minimum elevation drop used for Conduit WS02004404WS02004405
  WARNING 03: negative offset ignored for Link YS02001904YS02001907
  
  ****************
  Analysis Options
  ****************
  Flow Units ............... LPS
  Process Models:
    Rainfall/Runoff ........ YES
    RDII ................... NO
    Snowmelt ............... NO
    Groundwater ............ NO
    Flow Routing ........... YES
    Ponding Allowed ........ NO
    Water Quality .......... NO
  Infiltration Method ...... HORTON
  Flow Routing Method ...... DYNWAVE
  Surcharge Method ......... EXTRAN
  Starting Date ............ 08/28/2015 08:00:00
  Ending Date .............. 08/28/2015 16:00:00
  Antecedent Dry Days ...... 8.0
  Report Time Step ......... 00:01:00
  Wet Time Step ............ 00:01:00
  Dry Time Step ............ 00:01:00
  Routing Time Step ........ 30.00 sec
  Variable Time Step ....... YES
  Maximum Trials ........... 8
  Number of Threads ........ 2
  Head Tolerance ........... 0.001500 m
  
  
  **************************        Volume         Depth
  Runoff Quantity Continuity     hectare-m            mm
  **************************     ---------       -------
  Total Precipitation ......         1.683        50.739
  Evaporation Loss .........         0.000         0.000
  Infiltration Loss ........         0.097         2.911
  Surface Runoff ...........         1.554        46.844
  Final Storage ............         0.033         0.994
  Continuity Error (%) .....        -0.019
  
  
  **************************        Volume        Volume
  Flow Routing Continuity        hectare-m      10^6 ltr
  **************************     ---------     ---------
  Dry Weather Inflow .......         0.025         0.251
  Wet Weather Inflow .......         1.554        15.540
  Groundwater Inflow .......         0.000         0.000
  RDII Inflow ..............         0.000         0.000
  External Inflow ..........         0.083         0.834
  External Outflow .........         1.420        14.203
  Flooding Loss ............         0.335         3.352
  Evaporation Loss .........         0.000         0.000
  Exfiltration Loss ........         0.000         0.000
  Initial Stored Volume ....         0.243         2.431
  Final Stored Volume ......         0.182         1.816
  Continuity Error (%) .....        -1.657
  
  
  *************************
  Highest Continuity Errors
  *************************
  Node YS02001583 (-5.88%)
  Node YS02001884 (4.93%)
  Node WS02006256 (-2.61%)
  Node YS02001774 (1.30%)
  
  
  ***************************
  Time-Step Critical Elements
  ***************************
  Link WS02006238WS02006235 (26.96%)
  Link WS02004404WS02004405 (20.58%)
  Link WS02006252WS02006251 (20.57%)
  Link YS02001791YS02001793 (7.61%)
  Link WS02003066WSF200 (7.32%)
  
  
  ********************************
  Highest Flow Instability Indexes
  ********************************
  Link WS02006113WS02006111 (31)
  Link WS02006238WS02006235 (24)
  Link WS02006256WS02006235 (21)
  Link WS02004404WS02004405 (20)
  Link WS02006111WS02006112 (18)
  
  
  *********************************
  Most Frequent Nonconverging Nodes
  *********************************
  Node CC-1 (14.82%)
  Node CC-2 (14.82%)
  Node JK-1 (14.82%)
  Node JK-2 (14.82%)
  Node WSC (14.82%)
  
  
  *************************
  Routing Time Step Summary
  *************************
  Minimum Time Step           :     0.02 sec
  Average Time Step           :     2.83 sec
  Maximum Time Step           :    30.00 sec
  % of Time in Steady State   :     0.00
  Average Iterations per Step :     3.49
  % of Steps Not Converging   :    14.82
  Time Step Frequencies       :
     30.000 - 13.228 sec      :     0.01 %
     13.228 -  5.833 sec      :    12.61 %
      5.833 -  2.572 sec      :    32.38 %
      2.572 -  1.134 sec      :    27.88 %
      1.134 -  0.500 sec      :    27.12 %
  
  
  ***************************
  Subcatchment Runoff Summary
  ***************************
  
  ------------------------------------------------------------------------------------------------------------------------------
                            Total      Total      Total      Total     Imperv       Perv      Total       Total     Peak  Runoff
                           Precip      Runon       Evap      Infil     Runoff     Runoff     Runoff      Runoff   Runoff   Coeff
  Subcatchment                 mm         mm         mm         mm         mm         mm         mm    10^6 ltr      LPS
  ------------------------------------------------------------------------------------------------------------------------------
  sub60                     50.74       0.00       0.00       1.76      43.44       4.33      47.77        0.63   401.98   0.941
  sub61                     50.74       0.00       0.00       2.55      40.98       6.07      47.05        0.86   555.89   0.927
  sub62                     50.74       0.00       0.00       1.17      45.39       2.89      48.28        1.32   779.80   0.951
  sub63                     50.74       0.00       0.00       4.70      35.05      10.01      45.06        1.02   614.10   0.888
  sub64                     50.74       0.00       0.00       2.38      41.92       5.23      47.15        1.13   631.10   0.929
  sub65                     50.74       0.00       0.00       2.06      42.89       4.54      47.43        1.31   705.07   0.935
  sub66                     50.74       0.00       0.00       5.79      34.95       8.93      43.88        2.05   904.64   0.865
  sub67                     50.74       0.00       0.00       1.13      45.43       2.93      48.36        0.90   603.78   0.953
  sub68                     50.74       0.00       0.00       2.12      42.45       4.99      47.44        1.31   799.94   0.935
  sub69                     50.74       0.00       0.00       1.87      43.01       5.75      48.76        1.81   941.46   0.961
  sub70                     50.74       0.00       0.00       6.18      33.32      11.08      44.40        1.28   509.98   0.875
  sub71                     50.74       0.00       0.00       1.20      45.35       2.86      48.21        1.26   685.84   0.950
  sub72                     50.74       0.00       0.00       1.07      45.78       2.48      48.27        0.66   329.56   0.951
  
  
  ******************
  Node Depth Summary
  ******************
  
  ---------------------------------------------------------------------------------
                                 Average  Maximum  Maximum  Time of Max    Reported
                                   Depth    Depth      HGL   Occurrence   Max Depth
  Node                 Type       Meters   Meters   Meters  days hr:min      Meters
  ---------------------------------------------------------------------------------
  WS02003060           JUNCTION     0.21     0.38     5.32     0  02:25        0.38
  WS02003066           JUNCTION     0.18     0.30     5.85     0  02:25        0.30
  WS02003067           JUNCTION     0.48     0.70     6.02     0  02:25        0.70
  WS02003069           JUNCTION     0.23     0.43     5.02     0  02:26        0.43
  WS02003072           JUNCTION     0.29     0.50     4.87     0  02:27        0.50
  WS02003073           JUNCTION     0.16     0.30     4.36     0  02:27        0.30
  WS02004401           JUNCTION     0.57     0.88     6.88     0  02:19        0.88
  WS02004402           JUNCTION     0.60     0.91     6.87     0  02:22        0.90
  WS02004403           JUNCTION     0.63     0.92     6.85     0  02:20        0.92
  WS02004404           JUNCTION     0.71     1.06     6.91     0  02:15        1.03
  WS02004405           JUNCTION     0.70     0.97     6.82     0  02:23        0.97
  WS02004406           JUNCTION     0.71     0.96     6.79     0  02:35        0.96
  WS02004407           JUNCTION     0.16     0.30     6.61     0  02:20        0.30
  WS02004409           JUNCTION     0.35     0.67     6.44     0  02:20        0.67
  WS02004410           JUNCTION     0.38     0.68     6.40     0  02:20        0.68
  WS02004411           JUNCTION     0.40     0.69     6.37     0  02:21        0.69
  WS02004412           JUNCTION     0.43     0.70     6.34     0  02:21        0.70
  WS02004413           JUNCTION     0.59     0.86     6.33     0  02:21        0.86
  WS02006109           JUNCTION     0.61     1.07     7.69     0  02:41        0.98
  WS02006110           JUNCTION     0.62     1.03     7.62     0  03:06        0.94
  WS02006111           JUNCTION     0.16     0.90     7.60     0  00:00        0.40
  WS02006112           JUNCTION     0.72     2.68     8.56     0  00:00        1.14
  WS02006113           JUNCTION     0.24     1.40     8.29     0  00:00        0.46
  WS02006115           JUNCTION     0.45     1.65     7.79     0  00:00        0.86
  WS02006116           JUNCTION     0.54     1.06     7.10     0  00:00        0.86
  WS02006228           JUNCTION     0.60     1.09     7.74     0  03:06        1.04
  WS02006229           JUNCTION     0.57     1.11     7.80     0  02:40        1.05
  WS02006230           JUNCTION     0.57     1.25     7.99     0  02:40        1.17
  WS02006231           JUNCTION     0.38     1.00     8.12     0  03:20        0.93
  WS02006232           JUNCTION     0.51     1.38     8.42     0  03:20        1.14
  WS02006234           JUNCTION     0.44     1.56     8.72     0  03:20        1.17
  WS02006235           JUNCTION     0.48     1.73     8.90     0  03:20        1.26
  WS02006238           JUNCTION     0.50     1.78     8.92     0  03:20        1.30
  WS02006239           JUNCTION     0.47     1.68     8.89     0  03:20        1.28
  WS02006240           JUNCTION     0.43     1.59     8.89     0  03:20        1.24
  WS02006242           JUNCTION     0.49     1.55     8.82     0  03:20        1.30
  WS02006243           JUNCTION     0.41     1.34     8.76     0  03:20        1.19
  WS02006245           JUNCTION     0.41     1.25     8.74     0  03:20        1.16
  WS02006247           JUNCTION     0.43     1.21     8.71     0  03:20        1.16
  WS02006248           JUNCTION     0.39     1.09     8.68     0  02:40        1.09
  WS02006249           JUNCTION     0.42     1.09     8.69     0  02:02        1.09
  WS02006251           JUNCTION     0.41     1.43     9.10     0  02:02        1.13
  WS02006252           JUNCTION     0.29     1.50     9.74     0  00:20        0.70
  WS02006256           JUNCTION     1.03     2.35     9.28     0  00:14        2.35
  WSF200               JUNCTION     0.15     0.29     5.53     0  02:25        0.29
  YS02001580           JUNCTION     0.10     1.05     9.59     0  01:57        0.77
  YS02001583           JUNCTION     0.13     1.14     9.64     0  01:56        1.14
  YS02001586           JUNCTION     0.22     1.13     9.30     0  01:56        1.13
  YS02001590           JUNCTION     0.32     1.40     9.26     0  01:57        1.40
  YS02001593           JUNCTION     0.26     1.36     9.22     0  01:57        1.36
  YS02001596           JUNCTION     0.35     1.72     9.13     0  01:57        1.72
  YS02001600           JUNCTION     0.43     1.87     9.00     0  01:57        1.87
  YS02001601           JUNCTION     0.62     2.06     8.90     0  01:56        2.06
  YS02001602           JUNCTION     0.53     1.87     8.77     0  01:56        1.87
  YS02001605           JUNCTION     0.49     1.78     8.68     0  01:56        1.77
  YS02001607           JUNCTION     0.46     1.68     8.53     0  01:56        1.65
  YS02001610           JUNCTION     0.51     1.68     8.48     0  01:56        1.68
  YS02001613           JUNCTION     0.47     1.70     8.54     0  01:56        1.65
  YS02001616           JUNCTION     0.40     1.61     8.52     0  01:56        1.59
  YS02001619           JUNCTION     0.38     1.61     8.54     0  01:56        1.59
  YS02001622           JUNCTION     0.37     1.62     8.52     0  01:56        1.56
  YS02001625           JUNCTION     0.61     1.78     8.38     0  01:56        1.78
  YS02001629           JUNCTION     0.49     1.85     8.40     0  01:56        1.85
  YS02001633           JUNCTION     0.56     2.03     8.48     0  02:00        2.02
  YS02001641           JUNCTION     0.53     1.96     8.40     0  02:00        1.94
  YS02001644           JUNCTION     0.52     1.92     8.35     0  02:00        1.92
  YS02001647           JUNCTION     0.31     1.79     8.40     0  02:01        1.69
  YS02001649           JUNCTION     0.35     1.99     8.38     0  02:01        1.86
  YS02001652           JUNCTION     0.24     1.95     8.54     0  02:01        1.69
  YS02001655           JUNCTION     0.17     1.94     8.79     0  02:01        1.45
  YS02001658           JUNCTION     0.12     1.94     9.08     0  02:01        1.20
  YS02001661           JUNCTION     0.14     1.24     8.65     0  02:02        0.95
  YS02001664           JUNCTION     0.06     0.55     8.47     0  02:01        0.54
  YS02001745           JUNCTION     0.06     0.77     8.28     0  02:01        0.70
  YS02001748           JUNCTION     0.11     1.79     8.87     0  02:01        1.12
  YS02001751           JUNCTION     0.14     2.09     8.97     0  02:00        1.30
  YS02001754           JUNCTION     0.20     2.00     8.60     0  02:00        1.54
  YS02001757           JUNCTION     0.36     2.02     8.28     0  02:01        1.86
  YS02001759           JUNCTION     0.30     1.98     8.34     0  02:01        1.85
  YS02001762           JUNCTION     0.29     2.06     8.46     0  01:59        1.85
  YS02001765           JUNCTION     0.27     2.04     8.49     0  01:59        1.82
  YS02001767           JUNCTION     0.27     2.03     8.52     0  01:59        1.82
  YS02001770           JUNCTION     0.28     1.94     8.43     0  02:01        1.87
  YS02001774           JUNCTION     0.34     1.99     8.41     0  02:01        1.95
  YS02001779           JUNCTION     0.18     1.68     8.37     0  01:59        1.68
  YS02001783           JUNCTION     0.27     1.63     7.77     0  01:59        1.22
  YS02001784           JUNCTION     0.28     1.34     7.41     0  01:59        1.11
  YS02001786           JUNCTION     0.24     1.15     7.18     0  01:59        0.87
  YS02001788           JUNCTION     0.17     0.62     6.60     0  01:59        0.62
  YS02001790           JUNCTION     0.20     0.72     6.37     0  02:03        0.72
  YS02001791           JUNCTION     0.13     0.44     5.91     0  02:00        0.43
  YS02001793           JUNCTION     0.07     0.30     5.14     0  02:03        0.28
  YS02001882           JUNCTION     0.33     1.83     8.55     0  01:58        1.62
  YS02001884           JUNCTION     0.42     1.93     8.55     0  01:58        1.73
  YS02001887           JUNCTION     0.49     1.92     8.46     0  01:58        1.81
  YS02001890           JUNCTION     0.52     1.81     8.32     0  01:58        1.81
  YS02001895           JUNCTION     0.30     1.71     8.45     0  01:58        1.56
  YS02001898           JUNCTION     0.31     1.77     8.51     0  01:58        1.56
  YS02001901           JUNCTION     0.42     1.81     8.42     0  01:58        1.68
  YS02001904           JUNCTION     0.40     1.71     8.34     0  01:58        1.63
  YS02001907           JUNCTION     0.70     1.96     8.25     0  01:58        1.96
  YS02001910           JUNCTION     0.51     2.10     8.61     0  01:58        1.98
  YS02001915           JUNCTION     0.33     2.00     8.72     0  01:58        1.92
  YS02001918           JUNCTION     0.18     1.81     8.88     0  01:59        1.81
  YS02001920           JUNCTION     0.26     2.14     9.15     0  01:59        2.14
  YS02001923           JUNCTION     0.13     2.03     9.29     0  01:59        2.03
  YS02001926           JUNCTION     0.17     1.90     9.35     0  01:59        1.90
  YS02001929           JUNCTION     0.09     1.78     9.47     0  01:59        1.78
  YS02006553           JUNCTION     0.71     2.08     8.37     0  01:59        1.97
  YS02006556           JUNCTION     0.68     2.19     8.50     0  01:59        1.94
  YS02006558           JUNCTION     0.72     2.26     8.53     0  01:59        1.99
  YS02006561           JUNCTION     0.17     1.50     8.16     0  01:59        0.89
  YS02163301           JUNCTION     0.51     1.92     8.44     0  02:00        1.92
  YS02163601           JUNCTION     0.59     2.06     8.46     0  02:00        2.03
  YS02164001           JUNCTION     0.52     1.97     8.43     0  02:00        1.94
  CC-1                 OUTFALL      0.00     0.00     0.00     0  00:00        0.00
  CC-2                 OUTFALL      0.00     0.00     0.00     0  00:00        0.00
  JK-1                 OUTFALL      0.00     0.00     0.00     0  00:00        0.00
  JK-2                 OUTFALL      0.00     0.00     0.00     0  00:00        0.00
  WSC                  OUTFALL      0.16     0.30     0.97     0  02:28        0.30
  CC-storage           STORAGE      0.75     1.46     6.96     0  02:27        1.46
  JK-storage           STORAGE      1.50     4.23     5.03     0  02:17        4.13
  
  
  *******************
  Node Inflow Summary
  *******************
  
  -------------------------------------------------------------------------------------------------
                                  Maximum  Maximum                  Lateral       Total        Flow
                                  Lateral    Total  Time of Max      Inflow      Inflow     Balance
                                   Inflow   Inflow   Occurrence      Volume      Volume       Error
  Node                 Type           LPS      LPS  days hr:min    10^6 ltr    10^6 ltr     Percent
  -------------------------------------------------------------------------------------------------
  WS02003060           JUNCTION     16.53   557.11     0  02:25       0.476        4.33       0.056
  WS02003066           JUNCTION      0.00   540.27     0  02:25           0        3.86       0.037
  WS02003067           JUNCTION      0.00   540.22     0  02:21           0        3.86       0.109
  WS02003069           JUNCTION      0.32   557.23     0  02:26     0.00922        4.34       0.093
  WS02003072           JUNCTION      0.00   556.96     0  02:26           0        4.33       0.163
  WS02003073           JUNCTION      1.82   558.59     0  02:27      0.0524        4.38       0.132
  WS02004401           JUNCTION      0.00  1677.78     0  00:00           0        3.97       0.288
  WS02004402           JUNCTION      0.00  1171.33     0  00:01           0        3.95       0.283
  WS02004403           JUNCTION      0.00   884.75     0  00:01           0        3.94       0.273
  WS02004404           JUNCTION      0.16   832.59     0  00:01     0.00467        3.93       0.153
  WS02004405           JUNCTION      0.04   776.49     0  00:01      0.0011        3.93       0.285
  WS02004406           JUNCTION      0.00   711.76     0  00:02           0        3.92       0.554
  WS02004407           JUNCTION      0.00   542.64     0  02:20           0         3.9       0.028
  WS02004409           JUNCTION      0.00   541.75     0  02:20           0         3.9       0.070
  WS02004410           JUNCTION      0.00   541.03     0  02:20           0        3.89       0.116
  WS02004411           JUNCTION      0.00   540.81     0  02:20           0        3.89       0.149
  WS02004412           JUNCTION      0.00   540.56     0  02:21           0        3.88       0.193
  WS02004413           JUNCTION      0.00   540.57     0  02:21           0        3.88       0.352
  WS02006109           JUNCTION      1.23  1308.01     0  00:00      0.0354        3.89       0.150
  WS02006110           JUNCTION      0.00   553.24     0  03:06           0        3.87      -0.926
  WS02006111           JUNCTION      0.00  1176.04     0  00:00           0        3.89      -0.985
  WS02006112           JUNCTION      0.00  2307.30     0  00:00           0        3.94      -0.020
  WS02006113           JUNCTION      0.00   563.11     0  03:06           0        3.86      -1.273
  WS02006115           JUNCTION      0.00   899.27     0  00:00           0        3.91      -0.822
  WS02006116           JUNCTION      0.00  1098.16     0  00:01           0        3.94      -0.634
  WS02006228           JUNCTION      0.00   548.95     0  03:06           0        3.84       0.088
  WS02006229           JUNCTION      0.00   548.39     0  03:06           0        3.82       0.242
  WS02006230           JUNCTION     10.28   583.93     0  02:40       0.296        3.81       0.046
  WS02006231           JUNCTION      0.00   572.88     0  03:05           0         3.5       0.015
  WS02006232           JUNCTION      0.00   571.43     0  03:05           0        3.51       0.242
  WS02006234           JUNCTION      0.00   566.88     0  03:05           0        3.49      -0.413
  WS02006235           JUNCTION      0.00   569.18     0  01:50           0         3.6       0.443
  WS02006238           JUNCTION      0.00   423.63     0  03:07           0        2.68      -0.272
  WS02006239           JUNCTION      0.00   422.99     0  03:11           0         2.6      -0.104
  WS02006240           JUNCTION      0.00   423.66     0  03:11           0        2.57      -0.008
  WS02006242           JUNCTION      0.00   424.26     0  03:11           0        2.56       0.032
  WS02006243           JUNCTION      0.00   425.58     0  03:11           0        2.55      -0.360
  WS02006245           JUNCTION      0.00   425.86     0  03:11           0        2.57       0.658
  WS02006247           JUNCTION      0.00   425.35     0  03:11           0        2.57      -0.033
  WS02006248           JUNCTION      0.00   425.94     0  03:11           0        2.57      -0.045
  WS02006249           JUNCTION      0.00   465.63     0  01:45           0         2.8       0.863
  WS02006251           JUNCTION      0.08   408.61     0  02:02     0.00222        2.81       0.031
  WS02006252           JUNCTION      0.00   400.00     0  00:10           0        2.78      -0.574
  WS02006256           JUNCTION      0.00   300.00     0  00:25           0        1.35      -2.544
  WSF200               JUNCTION      0.00   540.33     0  02:25           0        3.86       0.013
  YS02001580           JUNCTION      0.00   127.98     0  01:57           0     0.00448       1.320
  YS02001583           JUNCTION      0.00   194.80     0  01:56           0      0.0154      -5.554
  YS02001586           JUNCTION    509.98   510.04     0  02:04        1.28        1.29       0.099
  YS02001590           JUNCTION      0.00   317.97     0  02:05           0        1.14      -0.038
  YS02001593           JUNCTION      0.00   318.01     0  02:06           0        1.14       0.005
  YS02001596           JUNCTION      0.00   317.99     0  02:03           0        1.14      -0.011
  YS02001600           JUNCTION      0.00   318.05     0  02:07           0        1.15       0.003
  YS02001601           JUNCTION    941.46  1259.01     0  02:03        1.81        2.95       0.013
  YS02001602           JUNCTION      0.00   531.31     0  01:56           0        2.05       0.019
  YS02001605           JUNCTION      0.00   531.21     0  01:56           0        1.97       0.019
  YS02001607           JUNCTION      0.00   531.10     0  01:56           0        1.97       0.093
  YS02001610           JUNCTION      0.00   541.07     0  01:56           0        1.99       0.103
  YS02001613           JUNCTION      0.00   547.90     0  01:56           0        1.69       0.088
  YS02001616           JUNCTION      0.00   554.49     0  01:56           0        1.69       0.017
  YS02001619           JUNCTION    904.64   932.93     0  01:58        2.05        3.72      -0.006
  YS02001622           JUNCTION      0.00   932.56     0  01:58           0         3.7      -0.008
  YS02001625           JUNCTION      0.00  1011.30     0  02:04           0        3.72       0.235
  YS02001629           JUNCTION      0.00   933.20     0  01:56           0        3.19       0.008
  YS02001633           JUNCTION    705.27  1403.78     0  01:58        1.31        4.46       0.074
  YS02001641           JUNCTION      0.00  1402.92     0  01:58           0        4.43       0.061
  YS02001644           JUNCTION    631.14  1841.86     0  01:59        1.13        5.56       0.058
  YS02001647           JUNCTION      0.00  1841.44     0  01:59           0        5.51       0.008
  YS02001649           JUNCTION      0.00  2103.14     0  01:58           0        6.54       0.005
  YS02001652           JUNCTION      0.00   722.94     0  02:02           0        1.03      -0.083
  YS02001655           JUNCTION      0.15   722.98     0  02:02     0.00443        1.03      -0.007
  YS02001658           JUNCTION      0.00   742.36     0  02:01           0        1.02      -0.076
  YS02001661           JUNCTION      0.00   809.52     0  02:02           0        1.02       0.022
  YS02001664           JUNCTION    614.10   614.10     0  02:02        1.02        1.02      -0.011
  YS02001745           JUNCTION    401.98   451.98     0  02:01       0.628       0.628       0.257
  YS02001748           JUNCTION      0.04   667.39     0  02:01      0.0013       0.629      -0.301
  YS02001751           JUNCTION      0.01   472.99     0  02:02    0.000317       0.636       0.089
  YS02001754           JUNCTION      0.26   473.25     0  02:02     0.00749       0.648      -0.178
  YS02001757           JUNCTION      0.00  3442.95     0  02:02           0        9.39       0.057
  YS02001759           JUNCTION    555.93  1327.10     0  02:02       0.865         2.2      -0.014
  YS02001762           JUNCTION      0.00   783.26     0  02:03           0        1.34      -0.003
  YS02001765           JUNCTION      0.00   782.33     0  02:03           0        1.34       0.010
  YS02001767           JUNCTION      0.54   781.75     0  02:03      0.0154        1.34      -0.005
  YS02001770           JUNCTION    779.95   779.95     0  02:02        1.33        1.37      -0.014
  YS02001774           JUNCTION      0.00   432.58     0  01:59           0      0.0654       1.319
  YS02001779           JUNCTION      0.01   434.84     0  01:59    0.000144      0.0228      -3.087
  YS02001783           JUNCTION      0.00  1156.60     0  02:01           0        3.54       0.006
  YS02001784           JUNCTION      1.06  1157.55     0  02:01      0.0305        3.57       0.015
  YS02001786           JUNCTION      0.06  1157.89     0  02:01     0.00162        3.57       0.019
  YS02001788           JUNCTION      0.07  1158.07     0  02:00     0.00204        3.58       0.008
  YS02001790           JUNCTION      0.15  1172.69     0  02:00     0.00446        3.58       0.014
  YS02001791           JUNCTION      0.00  1285.74     0  02:03           0        3.58      -0.016
  YS02001793           JUNCTION      0.00  1240.81     0  02:01           0        3.58       0.006
  YS02001882           JUNCTION      0.00    64.20     0  01:57           0      0.0126       4.598
  YS02001884           JUNCTION      0.00    69.77     0  01:57           0      0.0482       5.187
  YS02001887           JUNCTION    604.23   604.35     0  02:01       0.913       0.946       0.466
  YS02001890           JUNCTION      0.00   604.97     0  02:01           0       0.905       0.546
  YS02001895           JUNCTION      0.00   517.08     0  02:04           0       0.881       0.172
  YS02001898           JUNCTION      0.00   517.39     0  02:04           0       0.879       0.008
  YS02001901           JUNCTION      0.00   517.25     0  02:04           0       0.882       0.368
  YS02001904           JUNCTION      0.00   517.74     0  02:04           0       0.886       0.300
  YS02001907           JUNCTION      0.00  1572.60     0  02:01           0        2.88       0.597
  YS02001910           JUNCTION      0.00  1068.38     0  02:00           0           2       0.348
  YS02001915           JUNCTION    685.86  1068.19     0  02:00        1.26        2.05       0.073
  YS02001918           JUNCTION      0.00   468.22     0  01:59           0       0.821       0.005
  YS02001920           JUNCTION      2.87   470.98     0  01:59      0.0827       0.802       0.110
  YS02001923           JUNCTION      0.04   471.97     0  01:59     0.00109       0.704      -0.162
  YS02001926           JUNCTION      0.05   692.57     0  01:59      0.0015       0.682      -0.109
  YS02001929           JUNCTION    329.56   559.47     0  01:59       0.664       0.668      -0.006
  YS02006553           JUNCTION      0.00   793.85     0  02:16           0        2.26       0.511
  YS02006556           JUNCTION      0.00   793.65     0  02:16           0        2.27       0.332
  YS02006558           JUNCTION    800.82  1177.53     0  01:59        1.33        3.57       0.093
  YS02006561           JUNCTION      0.00  1177.42     0  01:59           0        3.54       0.002
  YS02163301           JUNCTION      0.00   931.74     0  01:58           0        3.18       0.044
  YS02163601           JUNCTION      0.11  1403.55     0  01:58     0.00317        4.43       0.111
  YS02164001           JUNCTION      0.00  1403.35     0  01:58           0        4.43       0.051
  CC-1                 OUTFALL       0.00   683.00     0  00:05           0        3.99       0.000
  CC-2                 OUTFALL       0.00   683.00     0  00:15           0        3.48       0.000
  JK-1                 OUTFALL       0.00  1000.00     0  01:45           0        1.58       0.000
  JK-2                 OUTFALL       0.00  1000.00     0  00:05           0       0.782       0.000
  WSC                  OUTFALL       0.00   558.40     0  02:28           0        4.37       0.000
  CC-storage           STORAGE       0.00  3443.41     0  02:02           0        11.6      -0.267
  JK-storage           STORAGE       0.00  1257.96     0  02:01           0        3.73      -0.462
  
  
  **********************
  Node Surcharge Summary
  **********************
  
  Surcharging occurs when water rises above the top of the highest conduit.
  ---------------------------------------------------------------------
                                               Max. Height   Min. Depth
                                   Hours       Above Crown    Below Rim
  Node                 Type      Surcharged         Meters       Meters
  ---------------------------------------------------------------------
  WS02004404           JUNCTION        0.06          0.057        2.723
  WS02006109           JUNCTION        1.39          0.250        1.570
  WS02006110           JUNCTION        0.78          0.124        1.726
  WS02006111           JUNCTION        0.01          0.087        1.783
  WS02006112           JUNCTION        0.84          1.680        0.000
  WS02006113           JUNCTION        0.01          0.600        1.330
  WS02006115           JUNCTION        0.01          0.642        1.608
  WS02006116           JUNCTION        0.01          0.000        2.290
  WS02006228           JUNCTION        1.38          0.258        1.942
  WS02006229           JUNCTION        1.42          0.307        2.143
  WS02006230           JUNCTION        0.78          0.167        1.403
  WS02006231           JUNCTION        0.83          0.287        1.243
  WS02006232           JUNCTION        1.55          0.678        0.802
  WS02006234           JUNCTION        1.10          0.839        0.401
  WS02006235           JUNCTION        1.42          1.022        0.268
  WS02006238           JUNCTION        1.48          1.057        0.373
  WS02006239           JUNCTION        1.37          0.937        0.353
  WS02006240           JUNCTION        1.38          0.883        0.507
  WS02006242           JUNCTION        1.47          0.820        0.000
  WS02006243           JUNCTION        1.38          0.629        0.141
  WS02006245           JUNCTION        1.37          0.541        0.309
  WS02006247           JUNCTION        1.38          0.500        0.260
  WS02006248           JUNCTION        1.35          0.375        0.005
  WS02006249           JUNCTION        1.37          0.390        0.000
  WS02006251           JUNCTION        0.86          0.396        0.784
  WS02006252           JUNCTION        1.79          1.100        0.000
  WS02006256           JUNCTION        6.38          2.050        0.000
  YS02001580           JUNCTION        0.47          0.450        0.000
  YS02001583           JUNCTION        0.48          0.500        0.000
  YS02001586           JUNCTION        0.60          0.510        0.000
  YS02001590           JUNCTION        0.67          0.750        0.000
  YS02001593           JUNCTION        0.67          0.738        0.102
  YS02001596           JUNCTION        0.78          0.986        0.084
  YS02001600           JUNCTION        0.92          1.190        0.000
  YS02001601           JUNCTION        1.31          1.440        0.000
  YS02001602           JUNCTION        1.18          1.270        0.000
  YS02001605           JUNCTION        1.12          1.180        0.000
  YS02001607           JUNCTION        0.63          0.680        0.000
  YS02001610           JUNCTION        0.66          0.680        0.000
  YS02001613           JUNCTION        0.63          0.700        0.000
  YS02001616           JUNCTION        0.59          0.610        0.000
  YS02001619           JUNCTION        0.58          0.610        0.000
  YS02001622           JUNCTION        0.57          0.620        0.000
  YS02001625           JUNCTION        0.74          0.780        0.000
  YS02001629           JUNCTION        0.52          0.470        0.000
  YS02001633           JUNCTION        0.76          1.010        0.050
  YS02001641           JUNCTION        0.68          0.965        0.135
  YS02001644           JUNCTION        0.65          0.920        0.000
  YS02001647           JUNCTION        0.45          0.789        0.111
  YS02001649           JUNCTION        0.56          0.994        0.056
  YS02001652           JUNCTION        0.37          0.918        0.212
  YS02001655           JUNCTION        0.24          0.938        0.262
  YS02001658           JUNCTION        0.09          0.943        0.357
  YS02001661           JUNCTION        0.01          0.174        1.216
  YS02001748           JUNCTION        0.01          0.712        0.478
  YS02001751           JUNCTION        0.14          1.093        0.107
  YS02001754           JUNCTION        0.25          0.946        0.204
  YS02001757           JUNCTION        0.59          1.022        0.188
  YS02001759           JUNCTION        0.50          0.979        0.231
  YS02001762           JUNCTION        0.47          1.064        0.086
  YS02001765           JUNCTION        0.42          1.043        0.057
  YS02001767           JUNCTION        0.40          1.030        0.000
  YS02001770           JUNCTION        0.38          0.908        0.012
  YS02001774           JUNCTION        0.46          0.993        0.057
  YS02001779           JUNCTION        0.27          0.680        0.000
  YS02001783           JUNCTION        0.44          0.833        0.767
  YS02001784           JUNCTION        0.42          0.538        0.952
  YS02001786           JUNCTION        0.33          0.346        1.084
  YS02001882           JUNCTION        0.39          0.830        0.000
  YS02001884           JUNCTION        0.40          0.870        0.000
  YS02001887           JUNCTION        0.44          0.875        0.075
  YS02001890           JUNCTION        0.45          0.760        0.000
  YS02001895           JUNCTION        0.38          0.707        0.043
  YS02001898           JUNCTION        0.38          0.740        0.000
  YS02001901           JUNCTION        0.42          0.814        0.056
  YS02001904           JUNCTION        0.42          0.708        0.142
  YS02001907           JUNCTION        0.64          0.950        0.000
  YS02001910           JUNCTION        0.47          1.100        0.000
  YS02001915           JUNCTION        0.39          1.000        0.000
  YS02001918           JUNCTION        0.31          0.810        0.000
  YS02001920           JUNCTION        0.32          1.140        0.000
  YS02001923           JUNCTION        0.01          0.820        0.000
  YS02001926           JUNCTION        0.01          0.900        0.000
  YS02001929           JUNCTION        0.01          0.780        0.000
  YS02006553           JUNCTION        0.66          1.085        0.105
  YS02006556           JUNCTION        0.56          1.150        0.200
  YS02006558           JUNCTION        0.55          1.164        0.236
  YS02006561           JUNCTION        0.28          0.695        0.455
  YS02163301           JUNCTION        0.74          0.924        0.106
  YS02163601           JUNCTION        0.78          1.057        0.023
  YS02164001           JUNCTION        0.69          0.969        0.131
  
  
  *********************
  Node Flooding Summary
  *********************
  
  Flooding refers to all water that overflows a node, whether it ponds or not.
  --------------------------------------------------------------------------
                                                             Total   Maximum
                                 Maximum   Time of Max       Flood    Ponded
                        Hours       Rate    Occurrence      Volume     Depth
  Node                 Flooded       LPS   days hr:min    10^6 ltr    Meters
  --------------------------------------------------------------------------
  WS02006112              0.01   1547.89      0  00:00       0.047     0.000
  WS02006242              0.01      1.69      0  03:20       0.000     0.000
  WS02006249              0.84    119.93      0  02:02       0.210     0.000
  WS02006252              0.01      0.91      0  00:20       0.000     0.000
  WS02006256              1.24    290.39      0  03:20       0.430     0.000
  YS02001580              0.01    113.87      0  01:57       0.000     0.000
  YS02001583              0.01    145.21      0  01:56       0.000     0.000
  YS02001586              0.36    192.44      0  02:04       0.137     0.000
  YS02001590              0.01      3.40      0  01:57       0.000     0.000
  YS02001600              0.01      1.14      0  01:57       0.000     0.000
  YS02001601              0.53    861.04      0  02:03       0.896     0.000
  YS02001602              0.42     61.98      0  02:18       0.083     0.000
  YS02001605              0.01      3.71      0  01:56       0.000     0.000
  YS02001607              0.01     13.44      0  01:56       0.000     0.000
  YS02001610              0.36    401.29      0  02:05       0.313     0.000
  YS02001613              0.01     14.43      0  01:56       0.000     0.000
  YS02001616              0.01     18.96      0  01:56       0.000     0.000
  YS02001619              0.01     91.46      0  01:56       0.000     0.000
  YS02001622              0.01    113.94      0  01:56       0.000     0.000
  YS02001625              0.32   1011.20      0  02:04       0.555     0.000
  YS02001629              0.06    220.68      0  01:56       0.014     0.000
  YS02001644              0.05    345.53      0  02:02       0.035     0.000
  YS02001767              0.01    134.89      0  01:59       0.000     0.000
  YS02001779              0.03    403.55      0  01:59       0.005     0.000
  YS02001882              0.01     28.12      0  01:58       0.000     0.000
  YS02001884              0.01     13.64      0  01:58       0.000     0.000
  YS02001890              0.09     98.18      0  02:01       0.019     0.000
  YS02001898              0.01    121.03      0  01:58       0.000     0.000
  YS02001907              0.26   1190.29      0  02:01       0.617     0.000
  YS02001910              0.01     21.12      0  01:58       0.000     0.000
  YS02001915              0.01    162.92      0  01:58       0.000     0.000
  YS02001918              0.01    227.96      0  02:00       0.003     0.000
  YS02001920              0.01     35.26      0  01:59       0.000     0.000
  YS02001923              0.01    454.58      0  01:59       0.003     0.000
  YS02001926              0.01    595.07      0  01:59       0.001     0.000
  YS02001929              0.01    220.70      0  01:59       0.000     0.000
  
  
  **********************
  Storage Volume Summary
  **********************
  
  ------------------------------------------------------------------------------------------------
                         Average    Avg   Evap  Exfil     Maximum    Max    Time of Max    Maximum
                          Volume   Pcnt   Pcnt   Pcnt      Volume   Pcnt     Occurrence    Outflow
  Storage Unit           1000 m³   Full   Loss   Loss     1000 m³   Full    days hr:min        LPS
  ------------------------------------------------------------------------------------------------
  CC-storage               2.086   32.5    0.0    0.0       4.078   63.6       0  02:27    1766.00
  JK-storage               0.075   25.9    0.0    0.0       0.212   72.9       0  02:17    2300.00
  
  
  ***********************
  Outfall Loading Summary
  ***********************
  
  -----------------------------------------------------------
                         Flow       Avg       Max       Total
                         Freq      Flow      Flow      Volume
  Outfall Node           Pcnt       LPS       LPS    10^6 ltr
  -----------------------------------------------------------
  CC-1                  35.47    683.00    683.00       3.986
  CC-2                  30.17    683.00    683.00       3.478
  JK-1                  11.21   1000.00   1000.00       1.585
  JK-2                   3.71   1000.00   1000.00       0.782
  WSC                   99.99    214.43    558.40       4.373
  -----------------------------------------------------------
  System                36.11   3580.43   3922.98      14.203
  
  
  ********************
  Link Flow Summary
  ********************
  
  -----------------------------------------------------------------------------
                                 Maximum  Time of Max   Maximum    Max/    Max/
                                  |Flow|   Occurrence   |Veloc|    Full    Full
  Link                 Type          LPS  days hr:min     m/sec    Flow   Depth
  -----------------------------------------------------------------------------
  1                    CONDUIT    558.40     0  02:28      2.83    0.19    0.30
  WS02003060WS02003069 CONDUIT    556.91     0  02:26      1.64    0.22    0.34
  WS02003066WSF200     CONDUIT    540.33     0  02:25      2.86    0.09    0.22
  WS02003067WS02003066 CONDUIT    540.27     0  02:25      1.21    0.17    0.42
  WS02003069WS02003072 CONDUIT    556.96     0  02:26      1.37    0.27    0.39
  WS02003072WS02003073 CONDUIT    556.77     0  02:27      1.44    1.20    0.37
  WS02004401WS02004402 CONDUIT   1171.33     0  00:01      2.51    1.41    0.89
  WS02004402WS02004403 CONDUIT    884.75     0  00:01      2.16    1.27    0.91
  WS02004403WS02004404 CONDUIT    832.43     0  00:01      1.96    0.60    0.96
  WS02004404WS02004405 CONDUIT    776.45     0  00:01      2.26    7.61    0.98
  WS02004405WS02004406 CONDUIT    711.76     0  00:02      2.15    1.40    0.96
  WS02004406WS02004407 CONDUIT    542.64     0  02:20      1.04    0.24    0.63
  WS02004407WS02004409 CONDUIT    541.75     0  02:20      1.95    0.19    0.48
  WS02004409WS02004410 CONDUIT    541.03     0  02:20      1.31    0.70    0.68
  WS02004410WS02004411 CONDUIT    540.81     0  02:20      1.19    0.74    0.69
  WS02004411WS02004412 CONDUIT    540.56     0  02:21      1.07    0.77    0.70
  WS02004412WS02004413 CONDUIT    540.57     0  02:21      1.10    0.36    0.78
  WS02004413WS02003067 CONDUIT    540.22     0  02:21      1.11    0.23    0.59
  WS02006109WS02006110 CONDUIT   1306.78     0  00:00      3.14    2.51    1.00
  WS02006110WS02006113 CONDUIT    563.11     0  03:06      1.36    0.51    1.00
  WS02006111WS02006112 CONDUIT   2307.30     0  00:00      9.18    1.10    0.91
  WS02006112WS02006115 CONDUIT    899.27     0  00:00      1.16    0.53    1.00
  WS02006113WS02006111 CONDUIT   1176.04     0  00:00      2.46    1.41    1.00
  WS02006115WS02006116 CONDUIT   1098.16     0  00:01      1.72    1.41    1.00
  WS02006116WS02004401 CONDUIT   1677.78     0  00:00      2.92    2.31    0.87
  WS02006228WS02006109 CONDUIT    550.68     0  03:06      1.40    2.41    1.00
  WS02006229WS02006228 CONDUIT    548.95     0  03:06      1.24    1.82    1.00
  WS02006230WS02006229 CONDUIT    548.39     0  03:06      1.42   12.20    1.00
  WS02006231WS02006230 CONDUIT    573.65     0  02:40      1.56    8.70    1.00
  WS02006232WS02006231 CONDUIT    572.88     0  03:05      1.49    1.20    1.00
  WS02006234WS02006232 CONDUIT    571.43     0  03:05      1.48    1.16    1.00
  WS02006235WS02006234 CONDUIT    566.88     0  03:05      1.47    5.98    1.00
  WS02006238WS02006235 CONDUIT    423.88     0  03:07      1.65    0.95    1.00
  WS02006239WS02006238 CONDUIT    423.63     0  03:07      1.27    1.36    1.00
  WS02006240WS02006239 CONDUIT    422.99     0  03:11      1.31    1.33    1.00
  WS02006242WS02006240 CONDUIT    423.66     0  03:11      1.17    1.68    1.00
  WS02006243WS02006242 CONDUIT    424.26     0  03:11      1.42    0.91    1.00
  WS02006245WS02006243 CONDUIT    425.58     0  03:11      1.43    1.26    1.00
  WS02006247WS02006245 CONDUIT    425.86     0  03:11      1.39    3.38    1.00
  WS02006248WS02006247 CONDUIT    425.35     0  03:11      1.46    0.93    1.00
  WS02006249WS02006248 CONDUIT    425.94     0  03:11      1.41    2.33    1.00
  WS02006251WS02006249 CONDUIT    465.63     0  01:45      1.99    1.34    1.00
  WS02006252WS02006251 CONDUIT    408.53     0  02:02     17.98    1.50    1.00
  WS02006256WS02006235 CONDUIT    287.18     0  04:50      4.20    3.04    1.00
  WSF200WS02003060     CONDUIT    540.58     0  02:25      2.06    0.12    0.28
  YS02001580YS02001583 CONDUIT    127.98     0  01:57      0.73    0.50    1.00
  YS02001583YS02001586 CONDUIT    171.57     0  01:56      0.74    0.26    1.00
  YS02001586YS02001590 CONDUIT    317.97     0  02:05      1.26    0.56    1.00
  YS02001590YS02001593 CONDUIT    318.01     0  02:06      1.12    2.00    1.00
  YS02001593YS02001596 CONDUIT    317.99     0  02:03      1.74    0.50    1.00
  YS02001596YS02001600 CONDUIT    318.05     0  02:07      1.22    0.62    1.00
  YS02001600YS02001601 CONDUIT    317.86     0  02:07      1.12    0.55    1.00
  YS02001601YS02001602 CONDUIT    531.31     0  01:56      1.88    1.92    1.00
  YS02001602YS02001605 CONDUIT    531.21     0  01:56      1.88   11.24    1.00
  YS02001605YS02001607 CONDUIT    531.10     0  01:56      1.88    2.91    1.00
  YS02001607YS02001610 CONDUIT    541.07     0  01:56      0.69    0.51    1.00
  YS02001610YS02001613 CONDUIT    547.90     0  01:56      0.70    0.63    1.00
  YS02001613YS02001616 CONDUIT    554.49     0  01:56      0.71    0.48    1.00
  YS02001616YS02001619 CONDUIT    505.69     0  01:56      0.67    0.88    1.00
  YS02001619YS02001622 CONDUIT    932.56     0  01:58      1.20    1.37    1.00
  YS02001622YS02001625 CONDUIT    933.28     0  01:56      1.19    0.50    1.00
  YS02001625YS02001629 CONDUIT    933.20     0  01:56      1.19    0.44    1.00
  YS02001629YS02163301 CONDUIT    931.74     0  01:58      1.19    1.15    1.00
  YS02001633YS02163601 CONDUIT   1403.44     0  01:58      1.79    1.47    1.00
  YS02001641YS02001644 CONDUIT   1403.16     0  01:58      1.79    4.54    1.00
  YS02001644YS02001647 CONDUIT   1841.44     0  01:59      2.36    1.08    1.00
  YS02001647YS02001649 CONDUIT   1861.34     0  01:59      2.38    0.98    1.00
  YS02001649YS02001757 CONDUIT   2092.54     0  01:58      2.67    1.27    1.00
  YS02001652YS02001649 CONDUIT    723.29     0  02:02      0.92    0.36    1.00
  YS02001655YS02001652 CONDUIT    722.94     0  02:02      1.35    0.35    1.00
  YS02001658YS02001655 CONDUIT    722.82     0  02:02      1.95    0.31    1.00
  YS02001661YS02001658 CONDUIT    742.36     0  02:01      2.38    0.29    1.00
  YS02001664YS02001661 CONDUIT    809.52     0  02:02      2.39    0.25    0.75
  YS02001745YS02001748 CONDUIT    667.34     0  02:01      2.28    0.26    0.86
  YS02001748YS02001751 CONDUIT    472.98     0  02:02      1.76    0.24    1.00
  YS02001751YS02001754 CONDUIT    472.99     0  02:02      1.48    0.23    1.00
  YS02001754YS02001757 CONDUIT    473.76     0  02:02      0.60    0.19    1.00
  YS02001757CaochengTiaoxuchi CONDUIT   3443.41     0  02:02      4.44    1.49    1.00
  YS02001759YS02001757 CONDUIT   1328.12     0  02:02      1.69    0.94    1.00
  YS02001762YS02001759 CONDUIT    783.91     0  02:03      1.00    0.90    1.00
  YS02001765YS02001762 CONDUIT    783.26     0  02:03      1.00    0.73    1.00
  YS02001767YS02001765 CONDUIT    782.33     0  02:03      1.00    0.98    1.00
  YS02001770YS02001767 CONDUIT    781.21     0  02:03      0.99    3.09    1.00
  YS02001774YS02001770 CONDUIT    432.58     0  01:59      0.55    0.28    1.00
  YS02001779YS02001774 CONDUIT    434.83     0  01:59      0.56    0.22    1.00
  YS02001783YS02001784 CONDUIT   1156.49     0  02:01      2.30    1.59    1.00
  YS02001784YS02001785 CONDUIT   1157.83     0  02:01      2.30    2.69    1.00
  YS02001786YS02001788 CONDUIT   1158.00     0  02:00      2.49    2.23    0.89
  YS02001788YS02001790 CONDUIT   1172.53     0  02:00      2.72    0.86    0.84
  YS02001790YS02001791 CONDUIT   1285.74     0  02:03      3.43    1.40    0.70
  YS02001791YS02001793 CONDUIT   1240.81     0  02:01      6.75    0.53    0.45
  YS02001793JiankangQianchi CONDUIT   1257.96     0  02:01      2.52    0.10    0.65
  YS02001882YS02001884 CONDUIT     64.20     0  01:57      0.11    0.07    1.00
  YS02001884YS02001887 CONDUIT     69.77     0  01:57      0.09    0.09    1.00
  YS02001887YS02001890 CONDUIT    604.97     0  02:01      0.77    1.04    1.00
  YS02001890YS02001895 CONDUIT    517.08     0  02:04      0.66    0.24    1.00
  YS02001895YS02001898 CONDUIT    517.39     0  02:04      0.66    0.90    1.00
  YS02001898YS02001901 CONDUIT    517.25     0  02:04      0.66    0.33    1.00
  YS02001901YS02001904 CONDUIT    517.74     0  02:04      0.66    0.80    1.00
  YS02001904YS02001907 CONDUIT    517.26     0  02:04      0.66    0.18    1.00
  YS02001907YS02006553 CONDUIT    793.85     0  02:16      0.88    0.93    1.00
  YS02001910YS02001907 CONDUIT   1068.56     0  02:00      1.36    0.60    1.00
  YS02001915YS02001910 CONDUIT   1068.38     0  02:00      1.36    0.53    1.00
  YS02001918YS02001915 CONDUIT    468.22     0  01:59      0.60    0.26    1.00
  YS02001920YS02001918 CONDUIT    468.11     0  01:59      0.64    0.45    1.00
  YS02001923YS02001920 CONDUIT    471.93     0  01:59      0.70    0.21    1.00
  YS02001926YS02001923 CONDUIT    442.22     0  01:59      0.97    0.63    1.00
  YS02001929YS02001926 CONDUIT    396.84     0  02:00      1.15    0.19    1.00
  YS02006553YS02006556 CONDUIT    793.65     0  02:16      1.01    0.68    1.00
  YS02006556YS02006558 CONDUIT    794.33     0  02:16      1.01    0.63    1.00
  YS02006558YS02006561 CONDUIT   1177.42     0  01:59      4.16    2.60    1.00
  YS02006561YS02001783 CONDUIT   1156.60     0  02:01      2.30    0.60    1.00
  YS02163301YS02001633 CONDUIT    931.44     0  01:58      1.19    0.88    1.00
  YS02163601YS02164001 CONDUIT   1403.35     0  01:58      1.79    1.24    1.00
  YS02164001YS02001641 CONDUIT   1402.92     0  01:58      1.79    1.92    1.00
  CC-R1                PUMP       683.00     0  00:05              1.00
  CC-R2                PUMP       683.00     0  00:15              1.00
  CC-S1                PUMP       200.00     0  00:10              1.00
  CC-S2                PUMP       200.00     0  00:10              1.00
  JK-R1                PUMP      1000.00     0  01:45              1.00
  JK-R2                PUMP      1000.00     0  00:05              1.00
  JK-S                 PUMP       300.00     0  00:25              1.00
  
  
  ***************************
  Flow Classification Summary
  ***************************
  
  -------------------------------------------------------------------------------------
                      Adjusted    ---------- Fraction of Time in Flow Class ---------- 
                       /Actual         Up    Down  Sub   Sup   Up    Down  Norm  Inlet 
  Conduit               Length    Dry  Dry   Dry   Crit  Crit  Crit  Crit  Ltd   Ctrl  
  -------------------------------------------------------------------------------------
  1                       1.00   0.00  0.00  0.00  0.00  1.00  0.00  0.00  0.35  0.00
  WS02003060WS02003069    1.00   0.00  0.00  0.00  0.97  0.03  0.00  0.00  0.76  0.00
  WS02003066WSF200        1.00   0.03  0.00  0.00  0.00  0.97  0.00  0.00  0.85  0.00
  WS02003067WS02003066    1.00   0.02  0.01  0.00  0.97  0.00  0.00  0.00  0.00  0.00
  WS02003069WS02003072    1.00   0.00  0.00  0.00  0.99  0.01  0.00  0.00  0.79  0.00
  WS02003072WS02003073    1.00   0.00  0.00  0.00  0.00  0.00  0.00  1.00  0.00  0.00
  WS02004401WS02004402    1.00   0.00  0.00  0.00  1.00  0.00  0.00  0.00  0.00  0.00
  WS02004402WS02004403    1.00   0.00  0.00  0.00  1.00  0.00  0.00  0.00  0.00  0.00
  WS02004403WS02004404    1.00   0.00  0.00  0.00  1.00  0.00  0.00  0.00  0.00  0.00
  WS02004404WS02004405    1.00   0.00  0.00  0.00  1.00  0.00  0.00  0.00  0.01  0.00
  WS02004405WS02004406    1.00   0.00  0.00  0.00  1.00  0.00  0.00  0.00  0.00  0.00
  WS02004406WS02004407    1.00   0.00  0.00  0.00  1.00  0.00  0.00  0.00  0.00  0.00
  WS02004407WS02004409    1.00   0.00  0.00  0.00  0.99  0.01  0.00  0.00  0.99  0.00
  WS02004409WS02004410    1.00   0.00  0.00  0.00  0.99  0.00  0.00  0.00  0.00  0.00
  WS02004410WS02004411    1.00   0.01  0.00  0.00  0.99  0.00  0.00  0.00  0.00  0.00
  WS02004411WS02004412    1.00   0.01  0.00  0.00  0.99  0.00  0.00  0.00  0.00  0.00
  WS02004412WS02004413    1.00   0.01  0.00  0.00  0.99  0.00  0.00  0.00  0.00  0.00
  WS02004413WS02003067    1.00   0.01  0.01  0.00  0.00  0.00  0.98  0.00  0.00  0.00
  WS02006109WS02006110    1.00   0.00  0.00  0.00  1.00  0.00  0.00  0.00  0.00  0.00
  WS02006110WS02006113    1.00   0.00  0.00  0.00  1.00  0.00  0.00  0.00  0.00  0.00
  WS02006111WS02006112    1.00   0.00  0.00  0.00  1.00  0.00  0.00  0.00  1.00  0.00
  WS02006112WS02006115    1.00   0.00  0.00  0.00  1.00  0.00  0.00  0.00  0.00  0.00
  WS02006113WS02006111    1.00   0.00  0.00  0.00  0.01  0.99  0.00  0.00  0.10  0.00
  WS02006115WS02006116    1.00   0.00  0.00  0.00  1.00  0.00  0.00  0.00  0.00  0.00
  WS02006116WS02004401    1.00   0.00  0.00  0.00  1.00  0.00  0.00  0.00  0.00  0.00
  WS02006228WS02006109    1.00   0.00  0.00  0.00  1.00  0.00  0.00  0.00  0.00  0.00
  WS02006229WS02006228    1.00   0.00  0.00  0.00  1.00  0.00  0.00  0.00  0.00  0.00
  WS02006230WS02006229    1.00   0.00  0.00  0.00  1.00  0.00  0.00  0.00  0.04  0.00
  WS02006231WS02006230    1.00   0.00  0.00  0.00  0.22  0.00  0.78  0.00  0.00  0.00
  WS02006232WS02006231    1.00   0.00  0.00  0.00  0.99  0.00  0.01  0.00  0.00  0.00
  WS02006234WS02006232    1.00   0.00  0.00  0.00  0.99  0.00  0.00  0.00  0.06  0.00
  WS02006235WS02006234    1.00   0.03  0.00  0.00  0.88  0.00  0.09  0.00  0.00  0.00
  WS02006238WS02006235    1.00   0.01  0.00  0.00  0.98  0.00  0.00  0.00  0.01  0.00
  WS02006239WS02006238    1.00   0.03  0.00  0.00  0.97  0.00  0.00  0.00  0.17  0.00
  WS02006240WS02006239    1.00   0.03  0.00  0.00  0.65  0.00  0.00  0.32  0.05  0.00
  WS02006242WS02006240    1.00   0.02  0.00  0.00  0.97  0.00  0.01  0.00  0.00  0.00
  WS02006243WS02006242    1.00   0.02  0.00  0.00  0.97  0.00  0.00  0.01  0.66  0.00
  WS02006245WS02006243    1.00   0.02  0.00  0.00  0.77  0.00  0.00  0.21  0.00  0.00
  WS02006247WS02006245    1.00   0.02  0.00  0.00  0.94  0.00  0.00  0.04  0.00  0.00
  WS02006248WS02006247    1.00   0.02  0.00  0.00  0.96  0.00  0.00  0.02  0.58  0.00
  WS02006249WS02006248    1.00   0.00  0.02  0.00  0.37  0.00  0.61  0.00  0.00  0.00
  WS02006251WS02006249    1.00   0.00  0.00  0.00  0.99  0.01  0.00  0.00  0.62  0.00
  WS02006252WS02006251    1.00   0.02  0.49  0.00  0.11  0.00  0.39  0.00  0.00  0.00
  WS02006256WS02006235    1.00   0.01  0.00  0.00  0.96  0.02  0.00  0.00  0.01  0.00
  WSF200WS02003060        1.00   0.00  0.03  0.00  0.46  0.51  0.00  0.00  0.73  0.00
  YS02001580YS02001583    1.00   0.24  0.58  0.00  0.18  0.00  0.00  0.00  0.68  0.00
  YS02001583YS02001586    1.00   0.43  0.34  0.00  0.23  0.00  0.00  0.00  0.68  0.00
  YS02001586YS02001590    1.00   0.13  0.00  0.00  0.41  0.04  0.00  0.42  0.36  0.00
  YS02001590YS02001593    1.00   0.13  0.01  0.00  0.10  0.00  0.77  0.00  0.00  0.00
  YS02001593YS02001596    1.00   0.14  0.00  0.00  0.11  0.01  0.00  0.74  0.02  0.00
  YS02001596YS02001600    1.00   0.14  0.00  0.00  0.18  0.01  0.00  0.67  0.05  0.00
  YS02001600YS02001601    1.00   0.13  0.01  0.00  0.86  0.00  0.00  0.00  0.62  0.00
  YS02001601YS02001602    1.00   0.13  0.01  0.00  0.86  0.00  0.00  0.00  0.00  0.00
  YS02001602YS02001605    1.00   0.14  0.00  0.00  0.86  0.00  0.00  0.00  0.00  0.00
  YS02001605YS02001607    1.00   0.14  0.00  0.00  0.86  0.00  0.00  0.00  0.00  0.00
  YS02001607YS02001610    1.00   0.13  0.01  0.00  0.86  0.00  0.00  0.00  0.02  0.00
  YS02001610YS02001613    1.00   0.13  0.00  0.00  0.87  0.00  0.00  0.00  0.01  0.00
  YS02001613YS02001616    1.00   0.13  0.00  0.00  0.87  0.00  0.00  0.00  0.00  0.00
  YS02001616YS02001619    1.00   0.13  0.00  0.00  0.87  0.00  0.00  0.00  0.00  0.00
  YS02001619YS02001622    1.00   0.13  0.00  0.00  0.87  0.00  0.00  0.00  0.29  0.00
  YS02001622YS02001625    1.00   0.13  0.00  0.00  0.87  0.00  0.00  0.00  0.05  0.00
  YS02001625YS02001629    1.00   0.13  0.05  0.00  0.14  0.00  0.68  0.00  0.00  0.00
  YS02001629YS02163301    1.00   0.16  0.01  0.00  0.83  0.00  0.00  0.00  0.00  0.00
  YS02001633YS02163601    1.00   0.00  0.01  0.00  0.99  0.00  0.00  0.00  0.15  0.00
  YS02001641YS02001644    1.00   0.00  0.01  0.00  0.99  0.00  0.00  0.00  0.00  0.00
  YS02001644YS02001647    1.00   0.00  0.18  0.00  0.82  0.00  0.00  0.00  0.00  0.00
  YS02001647YS02001649    1.00   0.00  0.18  0.00  0.52  0.30  0.00  0.00  0.58  0.00
  YS02001649YS02001757    1.00   0.00  0.00  0.00  0.69  0.31  0.00  0.00  0.47  0.00
  YS02001652YS02001649    1.00   0.00  0.00  0.00  0.96  0.04  0.00  0.00  0.76  0.00
  YS02001655YS02001652    1.00   0.00  0.00  0.00  0.17  0.01  0.00  0.82  0.07  0.00
  YS02001658YS02001655    1.00   0.00  0.14  0.00  0.63  0.23  0.00  0.00  0.72  0.00
  YS02001661YS02001658    1.00   0.14  0.00  0.00  0.47  0.39  0.00  0.00  0.71  0.00
  YS02001664YS02001661    1.00   0.13  0.00  0.00  0.76  0.11  0.00  0.00  0.86  0.00
  YS02001745YS02001748    1.00   0.00  0.00  0.00  0.06  0.01  0.00  0.93  0.05  0.00
  YS02001748YS02001751    1.00   0.00  0.00  0.00  0.80  0.20  0.00  0.00  0.80  0.00
  YS02001751YS02001754    1.00   0.00  0.00  0.00  0.13  0.01  0.00  0.87  0.03  0.00
  YS02001754YS02001757    1.00   0.00  0.00  0.00  1.00  0.00  0.00  0.00  0.85  0.00
  YS02001757CaochengTiaoxuchi    1.00   0.00  0.00  0.00  0.96  0.04  0.00  0.00  0.80  0.00
  YS02001759YS02001757    1.00   0.00  0.00  0.00  1.00  0.00  0.00  0.00  0.66  0.00
  YS02001762YS02001759    1.00   0.00  0.00  0.00  1.00  0.00  0.00  0.00  0.04  0.00
  YS02001765YS02001762    1.00   0.00  0.00  0.00  1.00  0.00  0.00  0.00  0.76  0.00
  YS02001767YS02001765    1.00   0.00  0.00  0.00  1.00  0.00  0.00  0.00  0.00  0.00
  YS02001770YS02001767    1.00   0.00  0.00  0.00  1.00  0.00  0.00  0.00  0.00  0.00
  YS02001774YS02001770    1.00   0.00  0.13  0.00  0.69  0.00  0.17  0.00  0.03  0.00
  YS02001779YS02001774    1.00   0.00  0.00  0.00  1.00  0.00  0.00  0.00  0.80  0.00
  YS02001783YS02001784    1.00   0.00  0.19  0.00  0.81  0.00  0.00  0.00  0.56  0.00
  YS02001784YS02001785    1.00   0.00  0.00  0.00  1.00  0.00  0.00  0.00  0.17  0.00
  YS02001786YS02001788    1.00   0.00  0.00  0.00  0.79  0.21  0.00  0.00  0.00  0.00
  YS02001788YS02001790    1.00   0.00  0.00  0.00  0.22  0.78  0.00  0.00  0.82  0.00
  YS02001790YS02001791    1.00   0.00  0.00  0.00  0.02  0.98  0.00  0.00  0.16  0.00
  YS02001791YS02001793    1.00   0.00  0.00  0.00  0.00  1.00  0.00  0.00  0.01  0.00
  YS02001793JiankangQianchi    1.00   0.00  0.00  0.00  0.98  0.02  0.00  0.00  0.97  0.00
  YS02001882YS02001884    1.00   0.15  0.01  0.00  0.84  0.00  0.00  0.00  0.00  0.00
  YS02001884YS02001887    1.00   0.06  0.05  0.00  0.89  0.00  0.00  0.00  0.00  0.00
  YS02001887YS02001890    1.00   0.00  0.00  0.00  0.97  0.00  0.03  0.00  0.00  0.00
  YS02001890YS02001895    1.00   0.00  0.17  0.00  0.83  0.00  0.00  0.00  0.00  0.00
  YS02001895YS02001898    1.00   0.17  0.00  0.00  0.81  0.00  0.02  0.00  0.00  0.00
  YS02001898YS02001901    1.00   0.17  0.00  0.00  0.83  0.00  0.00  0.00  0.01  0.00
  YS02001901YS02001904    1.00   0.17  0.00  0.00  0.83  0.00  0.00  0.00  0.00  0.00
  YS02001904YS02001907    1.00   0.00  0.17  0.00  0.83  0.00  0.00  0.00  0.00  0.00
  YS02001907YS02006553    1.00   0.00  0.02  0.00  0.98  0.00  0.00  0.00  0.00  0.00
  YS02001910YS02001907    1.00   0.00  0.00  0.00  0.97  0.00  0.00  0.03  0.12  0.00
  YS02001915YS02001910    1.00   0.00  0.00  0.00  0.97  0.03  0.00  0.00  0.17  0.00
  YS02001918YS02001915    1.00   0.00  0.00  0.00  0.98  0.02  0.00  0.00  0.77  0.00
  YS02001920YS02001918    1.00   0.00  0.00  0.00  1.00  0.00  0.00  0.00  0.01  0.00
  YS02001923YS02001920    1.00   0.00  0.00  0.00  1.00  0.00  0.00  0.00  0.94  0.00
  YS02001926YS02001923    1.00   0.00  0.07  0.00  0.05  0.00  0.88  0.00  0.00  0.00
  YS02001929YS02001926    1.00   0.00  0.13  0.00  0.87  0.00  0.00  0.00  0.83  0.00
  YS02006553YS02006556    1.00   0.01  0.00  0.00  0.99  0.00  0.00  0.00  0.03  0.00
  YS02006556YS02006558    1.00   0.00  0.00  0.00  1.00  0.00  0.00  0.00  0.00  0.00
  YS02006558YS02006561    1.00   0.18  0.00  0.00  0.05  0.77  0.00  0.00  0.19  0.00
  YS02006561YS02001783    1.00   0.19  0.00  0.00  0.08  0.74  0.00  0.00  0.70  0.00
  YS02163301YS02001633    1.00   0.00  0.16  0.00  0.84  0.00  0.00  0.00  0.00  0.00
  YS02163601YS02164001    1.00   0.00  0.08  0.00  0.92  0.00  0.00  0.00  0.00  0.00
  YS02164001YS02001641    1.00   0.01  0.07  0.00  0.92  0.00  0.00  0.00  0.06  0.00
  
  
  *************************
  Conduit Surcharge Summary
  *************************
  
  ----------------------------------------------------------------------------
                                                           Hours        Hours 
                         --------- Hours Full --------   Above Full   Capacity
  Conduit                Both Ends  Upstream  Dnstream   Normal Flow   Limited
  ----------------------------------------------------------------------------
  WS02003072WS02003073        0.01      0.01      0.01      1.03         0.01
  WS02004401WS02004402        0.01      0.01      0.01      0.01         0.01
  WS02004402WS02004403        0.01      0.01      0.01      0.01         0.01
  WS02004403WS02004404        0.01      0.01      0.04      0.01         0.01
  WS02004404WS02004405        0.01      0.04      0.01      2.32         0.01
  WS02004405WS02004406        0.01      0.01      0.01      0.72         0.01
  WS02006109WS02006110        0.77      0.78      1.53      0.82         0.01
  WS02006110WS02006113        0.01      0.01      1.48      0.01         0.01
  WS02006111WS02006112        0.01      0.01      1.76      0.01         0.01
  WS02006112WS02006115        0.01      0.01      0.83      0.01         0.01
  WS02006113WS02006111        0.01      0.01      0.01      0.01         0.01
  WS02006115WS02006116        0.01      0.01      0.01      0.01         0.01
  WS02006116WS02004401        0.01      0.01      0.01      0.01         0.01
  WS02006228WS02006109        1.39      1.54      1.39      1.89         1.39
  WS02006229WS02006228        1.38      1.42      1.38      1.77         1.37
  WS02006230WS02006229        1.67      1.75      1.67      2.99         1.67
  WS02006231WS02006230        0.78      0.78      0.86      2.27         0.01
  WS02006232WS02006231        0.83      0.83      1.55      0.88         0.01
  WS02006234WS02006232        1.35      1.35      1.55      0.86         0.86
  WS02006235WS02006234        1.09      1.10      1.42      2.17         0.01
  WS02006238WS02006235        1.45      1.45      1.54      0.01         0.01
  WS02006239WS02006238        1.43      1.47      1.48      1.52         1.22
  WS02006240WS02006239        1.36      1.39      1.37      1.51         1.14
  WS02006242WS02006240        1.38      1.38      1.51      1.70         0.01
  WS02006243WS02006242        1.39      1.39      1.47      0.01         0.02
  WS02006245WS02006243        1.37      1.38      1.38      0.78         0.67
  WS02006247WS02006245        1.37      1.40      1.37      1.97         1.36
  WS02006248WS02006247        1.36      1.36      1.38      0.01         0.02
  WS02006249WS02006248        1.35      1.35      1.37      1.95         0.01
  WS02006251WS02006249        1.36      1.37      1.37      1.67         1.32
  WS02006252WS02006251        1.75      1.75      1.78      1.76         0.01
  WS02006256WS02006235        2.18      2.21      6.28      1.30         0.01
  YS02001580YS02001583        0.47      0.47      0.52      0.01         0.01
  YS02001583YS02001586        0.48      0.48      0.60      0.01         0.01
  YS02001586YS02001590        0.61      0.61      0.67      0.01         0.01
  YS02001590YS02001593        0.67      0.67      0.69      0.71         0.01
  YS02001593YS02001596        0.68      0.68      0.78      0.01         0.01
  YS02001596YS02001600        0.82      0.82      0.92      0.01         0.01
  YS02001600YS02001601        0.98      0.98      1.31      0.01         0.01
  YS02001601YS02001602        1.18      1.18      1.35      0.94         0.01
  YS02001602YS02001605        1.12      1.12      1.18      2.13         0.01
  YS02001605YS02001607        1.06      1.12      1.06      1.27         1.06
  YS02001607YS02001610        0.63      0.63      0.66      0.01         0.01
  YS02001610YS02001613        0.63      0.63      0.66      0.01         0.01
  YS02001613YS02001616        0.59      0.59      0.63      0.01         0.01
  YS02001616YS02001619        0.58      0.58      0.59      0.01         0.01
  YS02001619YS02001622        0.57      0.58      0.57      0.70         0.55
  YS02001622YS02001625        0.57      0.57      0.74      0.01         0.01
  YS02001625YS02001629        0.52      0.52      0.74      0.01         0.01
  YS02001629YS02163301        0.73      0.73      0.74      0.23         0.21
  YS02001633YS02163601        0.76      0.76      0.78      0.40         0.38
  YS02001641YS02001644        0.65      0.68      0.65      1.39         0.65
  YS02001644YS02001647        0.45      0.45      0.65      0.04         0.01
  YS02001647YS02001649        0.45      0.45      0.56      0.01         0.01
  YS02001649YS02001757        0.55      0.56      0.59      0.33         0.27
  YS02001652YS02001649        0.39      0.39      0.56      0.01         0.01
  YS02001655YS02001652        0.24      0.24      0.37      0.01         0.01
  YS02001658YS02001655        0.09      0.09      0.24      0.01         0.01
  YS02001661YS02001658        0.01      0.01      0.09      0.01         0.01
  YS02001664YS02001661        0.01      0.01      0.01      0.01         0.01
  YS02001745YS02001748        0.01      0.01      0.01      0.01         0.01
  YS02001748YS02001751        0.04      0.04      0.14      0.01         0.01
  YS02001751YS02001754        0.14      0.14      0.25      0.01         0.01
  YS02001754YS02001757        0.31      0.31      0.59      0.01         0.01
  YS02001757CaochengTiaoxuchi        0.51      0.59      1.22      0.32         0.21
  YS02001759YS02001757        0.50      0.50      0.59      0.01         0.01
  YS02001762YS02001759        0.47      0.47      0.50      0.01         0.02
  YS02001765YS02001762        0.42      0.42      0.47      0.01         0.01
  YS02001767YS02001765        0.40      0.40      0.42      0.01         0.03
  YS02001770YS02001767        0.40      0.40      0.40      0.44         0.31
  YS02001774YS02001770        0.38      0.38      0.46      0.01         0.01
  YS02001779YS02001774        0.27      0.27      0.46      0.01         0.01
  YS02001783YS02001784        0.42      0.44      0.42      0.58         0.42
  YS02001784YS02001785        0.33      0.42      0.33      0.79         0.33
  YS02001786YS02001788        0.01      0.33      0.01      0.67         0.01
  YS02001790YS02001791        0.01      0.01      0.01      0.41         0.01
  YS02001793JiankangQianchi        0.01      0.01      6.66      0.01         0.01
  YS02001882YS02001884        0.39      0.39      0.40      0.01         0.01
  YS02001884YS02001887        0.43      0.43      0.44      0.01         0.01
  YS02001887YS02001890        0.45      0.45      0.46      0.03         0.01
  YS02001890YS02001895        0.38      0.38      0.48      0.01         0.01
  YS02001895YS02001898        0.38      0.38      0.38      0.01         0.01
  YS02001898YS02001901        0.39      0.39      0.42      0.01         0.01
  YS02001901YS02001904        0.42      0.42      0.42      0.01         0.01
  YS02001904YS02001907        0.42      0.42      0.66      0.01         0.01
  YS02001907YS02006553        0.81      0.81      0.87      0.01         0.01
  YS02001910YS02001907        0.47      0.47      0.64      0.01         0.01
  YS02001915YS02001910        0.39      0.39      0.47      0.01         0.01
  YS02001918YS02001915        0.31      0.31      0.39      0.01         0.01
  YS02001920YS02001918        0.31      0.31      0.32      0.01         0.01
  YS02001923YS02001920        0.27      0.27      0.32      0.01         0.01
  YS02001926YS02001923        0.01      0.01      0.01      0.01         0.01
  YS02001929YS02001926        0.01      0.01      0.01      0.01         0.01
  YS02006553YS02006556        0.56      0.56      0.66      0.01         0.01
  YS02006556YS02006558        0.60      0.60      0.67      0.01         0.01
  YS02006558YS02006561        0.35      0.55      0.35      0.75         0.35
  YS02006561YS02001783        0.28      0.28      0.44      0.01         0.01
  YS02163301YS02001633        0.74      0.74      0.77      0.01         0.01
  YS02163601YS02164001        0.69      0.69      0.78      0.06         0.01
  YS02164001YS02001641        0.68      0.69      0.68      0.70         0.58
  
  
  ***************
  Pumping Summary
  ***************
  
  ---------------------------------------------------------------------------------------------------------
                                                  Min       Avg       Max     Total     Power    % Time Off
                        Percent   Number of      Flow      Flow      Flow    Volume     Usage    Pump Curve
  Pump                 Utilized   Start-Ups       LPS       LPS       LPS  10^6 ltr     Kw-hr    Low   High
  ---------------------------------------------------------------------------------------------------------
  CC-R1                   20.36          27      0.00    683.00    683.00     4.005     72.11    0.0   35.5
  CC-R2                   17.78          32      0.00    683.00    683.00     3.498     62.33    0.0   41.4
  CC-S1                   25.12          26      0.00    200.00    200.00     1.447      8.93    0.0    0.0
  CC-S2                   23.37          20      0.00    200.00    200.00     1.346      8.30    0.0    0.0
  JK-R1                    5.51          12      0.00   1000.00   1000.00     1.587     15.86    0.0    0.0
  JK-R2                    2.73          14      0.00   1000.00   1000.00     0.787      6.32    0.0    0.0
  JK-S                    15.52          36      0.00    300.00    300.00     1.341     22.71    0.0    0.0
  

  Analysis begun on:  Fri Aug  4 09:50:58 2023
  Analysis ended on:  Fri Aug  4 09:51:02 2023
  Total elapsed time: 00:00:04