
  OWA STORM WATER MANAGEMENT MODEL - VERSION v5.1.14 (OWA 2022-07-31)
  --------------------------------------------------------------

  WARNING 04: minimum elevation drop used for Conduit WS02004404WS02004405
  WARNING 03: negative offset ignored for Link YS02001904YS02001907
  
  *********************************************************
  NOTE: The summary statistics displayed in this report are
  based on results found at every computational time step,  
  not just on results from each reporting time step.
  *********************************************************
  
  ****************
  Analysis Options
  ****************
  Flow Units ............... LPS
  Process Models:
    Rainfall/Runoff ........ YES
    RDII ................... NO
    Snowmelt ............... NO
    Groundwater ............ NO
    Flow Routing ........... YES
    Ponding Allowed ........ NO
    Water Quality .......... NO
  Infiltration Method ...... HORTON
  Flow Routing Method ...... DYNWAVE
  Surcharge Method ......... EXTRAN
  Starting Date ............ 08/28/2015 08:00:00
  Ending Date .............. 08/28/2015 16:00:00
  Antecedent Dry Days ...... 8.0
  Report Time Step ......... 00:01:00
  Wet Time Step ............ 00:01:00
  Dry Time Step ............ 00:01:00
  Routing Time Step ........ 30.00 sec
  Variable Time Step ....... YES
  Maximum Trials ........... 8
  Number of Threads ........ 1
  Head Tolerance ........... 0.001500 m
  
  
  **************************        Volume         Depth
  Runoff Quantity Continuity     hectare-m            mm
  **************************     ---------       -------
  Total Precipitation ......         0.908        27.379
  Evaporation Loss .........         0.000         0.000
  Infiltration Loss ........         0.085         2.554
  Surface Runoff ...........         0.791        23.844
  Final Storage ............         0.033         0.989
  Continuity Error (%) .....        -0.029
  
  
  **************************        Volume        Volume
  Flow Routing Continuity        hectare-m      10^6 ltr
  **************************     ---------     ---------
  Dry Weather Inflow .......         0.000         0.000
  Wet Weather Inflow .......         0.791         7.908
  Groundwater Inflow .......         0.000         0.000
  RDII Inflow ..............         0.000         0.000
  External Inflow ..........         0.083         0.834
  External Outflow .........         0.955         9.555
  Flooding Loss ............         0.012         0.123
  Evaporation Loss .........         0.000         0.000
  Exfiltration Loss ........         0.000         0.000
  Initial Stored Volume ....         0.243         2.431
  Final Stored Volume ......         0.181         1.806
  Continuity Error (%) .....        -2.782
  
  
  *************************
  Highest Continuity Errors
  *************************
  Node YS02001583 (-4.99%)
  Node YS02001884 (4.06%)
  Node YS02001774 (2.63%)
  Node YS02001907 (1.13%)
  
  
  ***************************
  Time-Step Critical Elements
  ***************************
  Link WS02006252WS02006251 (80.30%)
  Link WS02006235WS02006234 (6.31%)
  Link WS02004404WS02004405 (5.51%)
  Link WS02006238WS02006235 (2.54%)
  Link WS02003066WSF200 (2.18%)
  
  
  ********************************
  Highest Flow Instability Indexes
  ********************************
  Link WS02006113WS02006111 (54)
  Link WS02006111WS02006112 (28)
  Link WS02004404WS02004405 (15)
  Link WS02004403WS02004404 (13)
  Link WS02004405WS02004406 (12)
  
  
  *************************
  Routing Time Step Summary
  *************************
  Minimum Time Step           :     0.01 sec
  Average Time Step           :     1.18 sec
  Maximum Time Step           :    30.00 sec
  Percent in Steady State     :    -0.00
  Average Iterations per Step :     2.23
  Percent Not Converging      :     2.22
  
  
  ***************************
  Subcatchment Runoff Summary
  ***************************
  
  ------------------------------------------------------------------------------------------------------------------------------
                            Total      Total      Total      Total     Imperv       Perv      Total       Total     Peak  Runoff
                           Precip      Runon       Evap      Infil     Runoff     Runoff     Runoff      Runoff   Runoff   Coeff
  Subcatchment                 mm         mm         mm         mm         mm         mm         mm    10^6 ltr      LPS
  ------------------------------------------------------------------------------------------------------------------------------
  sub60                     27.38       0.00       0.00       1.61      22.89       1.67      24.56        0.32   198.14   0.897
  sub61                     27.38       0.00       0.00       2.32      21.59       2.33      23.92        0.44   269.56   0.874
  sub62                     27.38       0.00       0.00       1.08      23.90       1.12      25.02        0.69   372.38   0.914
  sub63                     27.38       0.00       0.00       4.22      18.47       3.72      22.18        0.50   281.73   0.810
  sub64                     27.38       0.00       0.00       2.14      22.07       1.96      24.03        0.58   284.35   0.878
  sub65                     27.38       0.00       0.00       1.86      22.57       1.70      24.27        0.67   313.15   0.887
  sub66                     27.38       0.00       0.00       4.99      18.37       2.95      21.32        0.99   373.17   0.779
  sub67                     27.38       0.00       0.00       1.05      23.94       1.14      25.08        0.47   318.81   0.916
  sub68                     27.38       0.00       0.00       1.92      22.36       1.91      24.27        0.67   380.64   0.886
  sub69                     27.38       0.00       0.00       1.62      23.16       2.48      25.65        0.95   443.14   0.937
  sub70                     27.38       0.00       0.00       5.13      17.91       4.18      22.10        0.64   219.96   0.807
  sub71                     27.38       0.00       0.00       1.10      23.86       1.10      24.96        0.65   309.95   0.912
  sub72                     27.38       0.00       0.00       0.97      24.07       0.95      25.01        0.34   143.10   0.914
  
  
  ******************
  Node Depth Summary
  ******************
  
  ---------------------------------------------------------------------------------
                                 Average  Maximum  Maximum  Time of Max    Reported
                                   Depth    Depth      HGL   Occurrence   Max Depth
  Node                 Type       Meters   Meters   Meters  days hr:min      Meters
  ---------------------------------------------------------------------------------
  WS02003060           JUNCTION     0.23     0.36     5.29     0  02:14        0.36
  WS02003066           JUNCTION     0.20     0.28     5.83     0  02:14        0.28
  WS02003067           JUNCTION     0.51     0.67     5.99     0  02:14        0.67
  WS02003069           JUNCTION     0.26     0.40     4.98     0  02:15        0.40
  WS02003072           JUNCTION     0.32     0.47     4.84     0  02:16        0.47
  WS02003073           JUNCTION     0.18     0.28     4.34     0  02:17        0.28
  WS02004401           JUNCTION     0.59     0.83     6.83     0  02:11        0.82
  WS02004402           JUNCTION     0.63     0.86     6.82     0  02:11        0.85
  WS02004403           JUNCTION     0.65     0.88     6.81     0  02:11        0.87
  WS02004404           JUNCTION     0.73     0.97     6.82     0  02:11        0.94
  WS02004405           JUNCTION     0.72     0.93     6.78     0  02:11        0.93
  WS02004406           JUNCTION     0.73     0.93     6.76     0  02:11        0.93
  WS02004407           JUNCTION     0.18     0.28     6.60     0  02:12        0.28
  WS02004409           JUNCTION     0.39     0.61     6.38     0  02:12        0.61
  WS02004410           JUNCTION     0.41     0.63     6.35     0  02:12        0.63
  WS02004411           JUNCTION     0.44     0.64     6.32     0  02:13        0.64
  WS02004412           JUNCTION     0.46     0.65     6.29     0  02:13        0.65
  WS02004413           JUNCTION     0.63     0.82     6.29     0  02:14        0.82
  WS02006109           JUNCTION     0.63     1.24     7.85     0  00:00        0.97
  WS02006110           JUNCTION     0.64     1.45     8.04     0  00:00        0.92
  WS02006111           JUNCTION     0.17     1.67     8.37     0  00:00        0.56
  WS02006112           JUNCTION     0.74     2.68     8.56     0  00:00        1.29
  WS02006113           JUNCTION     0.26     1.50     8.40     0  00:00        0.45
  WS02006115           JUNCTION     0.47     1.69     7.83     0  00:00        0.86
  WS02006116           JUNCTION     0.56     1.11     7.15     0  00:00        0.80
  WS02006228           JUNCTION     0.61     1.64     8.29     0  00:00        1.01
  WS02006229           JUNCTION     0.58     1.31     8.00     0  00:00        1.01
  WS02006230           JUNCTION     0.56     1.25     8.00     0  02:08        1.11
  WS02006231           JUNCTION     0.39     0.97     8.09     0  02:08        0.85
  WS02006232           JUNCTION     0.52     1.14     8.18     0  02:08        1.05
  WS02006234           JUNCTION     0.42     1.15     8.31     0  02:08        1.07
  WS02006235           JUNCTION     0.45     1.24     8.41     0  02:08        1.15
  WS02006238           JUNCTION     0.48     1.28     8.42     0  02:08        1.18
  WS02006239           JUNCTION     0.45     1.26     8.47     0  02:08        1.16
  WS02006240           JUNCTION     0.41     1.22     8.51     0  02:08        1.14
  WS02006242           JUNCTION     0.49     1.29     8.56     0  02:08        1.24
  WS02006243           JUNCTION     0.39     1.18     8.60     0  02:08        1.16
  WS02006245           JUNCTION     0.40     1.15     8.64     0  02:08        1.14
  WS02006247           JUNCTION     0.43     1.16     8.66     0  02:08        1.16
  WS02006248           JUNCTION     0.38     1.10     8.68     0  02:08        1.10
  WS02006249           JUNCTION     0.42     1.09     8.69     0  02:07        1.09
  WS02006251           JUNCTION     0.42     1.22     8.89     0  02:07        1.15
  WS02006252           JUNCTION     0.35     1.50     9.74     0  01:50        0.70
  WS02006256           JUNCTION     0.69     2.35     9.28     0  01:44        2.35
  WSF200               JUNCTION     0.17     0.27     5.50     0  02:14        0.27
  YS02001580           JUNCTION     0.02     1.05     9.59     0  01:42        0.64
  YS02001583           JUNCTION     0.05     1.14     9.64     0  01:42        0.68
  YS02001586           JUNCTION     0.08     1.13     9.30     0  01:42        0.98
  YS02001590           JUNCTION     0.14     1.40     9.26     0  01:39        1.25
  YS02001593           JUNCTION     0.09     1.32     9.18     0  01:39        1.19
  YS02001596           JUNCTION     0.13     1.80     9.22     0  01:38        1.59
  YS02001600           JUNCTION     0.16     1.87     9.00     0  01:42        1.81
  YS02001601           JUNCTION     0.30     2.06     8.90     0  01:42        2.06
  YS02001602           JUNCTION     0.24     1.87     8.77     0  01:42        1.87
  YS02001605           JUNCTION     0.21     1.78     8.68     0  01:42        1.63
  YS02001607           JUNCTION     0.22     1.68     8.53     0  01:42        1.26
  YS02001610           JUNCTION     0.25     1.68     8.48     0  01:42        1.30
  YS02001613           JUNCTION     0.22     1.70     8.54     0  01:42        1.27
  YS02001616           JUNCTION     0.17     1.61     8.52     0  01:42        1.23
  YS02001619           JUNCTION     0.15     1.61     8.54     0  01:42        1.22
  YS02001622           JUNCTION     0.14     1.62     8.52     0  01:42        1.21
  YS02001625           JUNCTION     0.36     1.73     8.34     0  01:42        1.46
  YS02001629           JUNCTION     0.21     1.85     8.40     0  01:42        1.47
  YS02001633           JUNCTION     0.27     1.73     8.19     0  01:42        1.48
  YS02001641           JUNCTION     0.27     1.36     7.80     0  01:42        1.23
  YS02001644           JUNCTION     0.27     1.26     7.69     0  01:42        1.13
  YS02001647           JUNCTION     0.11     0.75     7.36     0  01:43        0.74
  YS02001649           JUNCTION     0.12     0.85     7.24     0  01:44        0.83
  YS02001652           JUNCTION     0.06     0.65     7.24     0  01:44        0.62
  YS02001655           JUNCTION     0.04     0.39     7.24     0  01:44        0.37
  YS02001658           JUNCTION     0.03     0.23     7.38     0  01:40        0.23
  YS02001661           JUNCTION     0.08     0.29     7.70     0  01:40        0.29
  YS02001664           JUNCTION     0.03     0.20     8.13     0  01:40        0.20
  YS02001745           JUNCTION     0.02     0.19     7.70     0  01:40        0.19
  YS02001748           JUNCTION     0.03     0.21     7.29     0  01:40        0.21
  YS02001751           JUNCTION     0.03     0.21     7.09     0  01:41        0.21
  YS02001754           JUNCTION     0.04     0.50     7.11     0  01:45        0.49
  YS02001757           JUNCTION     0.14     0.83     7.10     0  01:47        0.83
  YS02001759           JUNCTION     0.10     0.74     7.10     0  01:46        0.73
  YS02001762           JUNCTION     0.09     0.71     7.11     0  01:46        0.70
  YS02001765           JUNCTION     0.08     0.67     7.12     0  01:46        0.66
  YS02001767           JUNCTION     0.08     0.64     7.13     0  01:46        0.64
  YS02001770           JUNCTION     0.09     0.66     7.16     0  01:47        0.66
  YS02001774           JUNCTION     0.14     0.74     7.17     0  01:47        0.73
  YS02001779           JUNCTION     0.03     0.48     7.17     0  01:45        0.47
  YS02001783           JUNCTION     0.10     0.86     7.00     0  01:46        0.85
  YS02001784           JUNCTION     0.11     0.82     6.88     0  01:46        0.81
  YS02001786           JUNCTION     0.10     0.66     6.69     0  01:46        0.66
  YS02001788           JUNCTION     0.07     0.52     6.50     0  01:47        0.52
  YS02001790           JUNCTION     0.08     0.61     6.25     0  01:47        0.61
  YS02001791           JUNCTION     0.05     0.37     5.84     0  01:47        0.36
  YS02001793           JUNCTION     0.03     0.18     5.02     0  01:47        0.18
  YS02001882           JUNCTION     0.14     0.94     7.66     0  01:45        0.94
  YS02001884           JUNCTION     0.21     1.03     7.65     0  01:45        1.02
  YS02001887           JUNCTION     0.27     1.11     7.65     0  01:45        1.10
  YS02001890           JUNCTION     0.30     1.14     7.64     0  01:45        1.13
  YS02001895           JUNCTION     0.12     0.89     7.64     0  01:46        0.88
  YS02001898           JUNCTION     0.12     0.91     7.64     0  01:46        0.89
  YS02001901           JUNCTION     0.21     1.04     7.65     0  01:46        1.01
  YS02001904           JUNCTION     0.20     1.02     7.65     0  01:46        1.00
  YS02001907           JUNCTION     0.45     1.35     7.64     0  01:46        1.34
  YS02001910           JUNCTION     0.29     1.14     7.64     0  01:46        1.13
  YS02001915           JUNCTION     0.14     0.93     7.65     0  01:48        0.93
  YS02001918           JUNCTION     0.05     0.58     7.65     0  01:47        0.58
  YS02001920           JUNCTION     0.10     0.65     7.66     0  01:47        0.65
  YS02001923           JUNCTION     0.03     0.40     7.66     0  01:47        0.39
  YS02001926           JUNCTION     0.07     0.31     7.76     0  01:44        0.31
  YS02001929           JUNCTION     0.03     0.18     7.87     0  01:44        0.18
  YS02006553           JUNCTION     0.45     1.34     7.63     0  01:46        1.33
  YS02006556           JUNCTION     0.43     1.30     7.61     0  01:46        1.28
  YS02006558           JUNCTION     0.47     1.33     7.59     0  01:46        1.31
  YS02006561           JUNCTION     0.06     0.45     7.11     0  01:46        0.44
  YS02163301           JUNCTION     0.23     1.79     8.31     0  01:42        1.47
  YS02163601           JUNCTION     0.31     1.60     8.00     0  01:42        1.41
  YS02164001           JUNCTION     0.26     1.43     7.88     0  01:42        1.28
  CC-1                 OUTFALL      0.00     0.00     0.00     0  00:00        0.00
  CC-2                 OUTFALL      0.00     0.00     0.00     0  00:00        0.00
  JK-1                 OUTFALL      0.00     0.00     0.00     0  00:00        0.00
  JK-2                 OUTFALL      0.00     0.00     0.00     0  00:00        0.00
  WSC                  OUTFALL      0.18     0.28     0.95     0  02:17        0.28
  CC-storage           STORAGE      0.75     1.29     6.79     0  02:10        1.29
  JK-storage           STORAGE      1.32     4.21     5.01     0  01:44        4.11
  
  
  *******************
  Node Inflow Summary
  *******************
  
  -------------------------------------------------------------------------------------------------
                                  Maximum  Maximum                  Lateral       Total        Flow
                                  Lateral    Total  Time of Max      Inflow      Inflow     Balance
                                   Inflow   Inflow   Occurrence      Volume      Volume       Error
  Node                 Type           LPS      LPS  days hr:min    10^6 ltr    10^6 ltr     Percent
  -------------------------------------------------------------------------------------------------
  WS02003060           JUNCTION     16.53   481.30     0  02:14       0.476        6.05       0.037
  WS02003066           JUNCTION      0.00   464.09     0  02:14           0        5.57       0.023
  WS02003067           JUNCTION      0.00   463.90     0  02:14           0        5.58       0.073
  WS02003069           JUNCTION      0.32   482.76     0  02:14     0.00922        6.06       0.060
  WS02003072           JUNCTION      0.00   483.10     0  02:15           0        6.05       0.108
  WS02003073           JUNCTION      1.82   482.92     0  02:16      0.0524         6.1       0.087
  WS02004401           JUNCTION      0.00  1786.04     0  00:00           0        5.69       0.190
  WS02004402           JUNCTION      0.00  1248.69     0  00:01           0        5.68       0.191
  WS02004403           JUNCTION      0.00   929.44     0  00:01           0        5.67       0.187
  WS02004404           JUNCTION      0.00   877.02     0  00:01           0        5.65       0.280
  WS02004405           JUNCTION      0.00   827.31     0  00:01           0        5.64       0.104
  WS02004406           JUNCTION      0.00   768.45     0  00:02           0        5.63       0.380
  WS02004407           JUNCTION      0.00   492.51     0  02:11           0        5.61       0.017
  WS02004409           JUNCTION      0.00   490.83     0  02:12           0        5.61       0.044
  WS02004410           JUNCTION      0.00   484.53     0  02:12           0        5.61       0.075
  WS02004411           JUNCTION      0.00   480.31     0  02:13           0         5.6       0.097
  WS02004412           JUNCTION      0.00   472.55     0  02:13           0         5.6       0.128
  WS02004413           JUNCTION      0.00   466.83     0  02:13           0        5.59       0.236
  WS02006109           JUNCTION      0.00  1446.81     0  00:00           0        5.59      -0.084
  WS02006110           JUNCTION      0.00   548.95     0  02:08           0        5.56      -0.979
  WS02006111           JUNCTION      0.00  1180.41     0  00:00           0        5.61      -0.761
  WS02006112           JUNCTION      0.00  2307.30     0  00:00           0        5.66       0.002
  WS02006113           JUNCTION      0.00   561.11     0  02:08           0        5.58      -0.680
  WS02006115           JUNCTION      0.00   953.54     0  00:00           0        5.63      -0.635
  WS02006116           JUNCTION      0.00  1264.47     0  00:00           0        5.66      -0.413
  WS02006228           JUNCTION      0.00   869.18     0  00:00           0        5.57      -0.002
  WS02006229           JUNCTION      0.00   547.12     0  02:08           0        5.56      -0.047
  WS02006230           JUNCTION     10.28   706.67     0  00:00       0.296        5.55       0.042
  WS02006231           JUNCTION      0.00   572.90     0  02:07           0        5.24       0.008
  WS02006232           JUNCTION      0.00   571.62     0  02:07           0        5.24       0.076
  WS02006234           JUNCTION      0.00   567.71     0  02:07           0        5.23      -0.022
  WS02006235           JUNCTION      0.00   561.17     0  02:07           0        5.23       0.049
  WS02006238           JUNCTION      0.00   419.23     0  02:10           0        5.18      -0.073
  WS02006239           JUNCTION      0.00   419.31     0  02:10           0        5.17      -0.112
  WS02006240           JUNCTION      0.00   416.95     0  02:10           0        5.17       0.010
  WS02006242           JUNCTION      0.00   417.33     0  02:10           0        5.18       0.048
  WS02006243           JUNCTION      0.00   416.75     0  02:10           0        5.17      -0.055
  WS02006245           JUNCTION      0.00   415.62     0  02:10           0        5.18       0.118
  WS02006247           JUNCTION      0.00   415.06     0  02:10           0        5.18       0.022
  WS02006248           JUNCTION      0.00   414.91     0  02:10           0        5.18       0.001
  WS02006249           JUNCTION      0.00   420.03     0  01:51           0         5.2       0.130
  WS02006251           JUNCTION      0.00   402.55     0  02:08           0         5.2       0.014
  WS02006252           JUNCTION      0.00   400.00     0  01:50           0        5.19      -0.243
  WS02006256           JUNCTION      0.00   300.00     0  01:44           0      0.0654      -0.201
  WSF200               JUNCTION      0.00   463.98     0  02:14           0        5.57       0.009
  YS02001580           JUNCTION      0.00    86.00     0  01:42           0     0.00435       2.100
  YS02001583           JUNCTION      0.00   115.38     0  01:41           0      0.0154      -4.752
  YS02001586           JUNCTION    219.96   232.21     0  01:43       0.638        0.65       0.185
  YS02001590           JUNCTION      0.00   232.36     0  01:43           0       0.637      -0.017
  YS02001593           JUNCTION      0.00   232.32     0  01:43           0       0.638      -0.007
  YS02001596           JUNCTION      0.00   232.34     0  01:43           0       0.638      -0.043
  YS02001600           JUNCTION      0.00   232.40     0  01:43           0       0.638      -0.002
  YS02001601           JUNCTION    443.14   671.38     0  01:43       0.949        1.59       0.034
  YS02001602           JUNCTION      0.00   555.16     0  01:42           0        1.53       0.018
  YS02001605           JUNCTION      0.00   555.32     0  01:42           0        1.53       0.020
  YS02001607           JUNCTION      0.00   555.23     0  01:42           0        1.52       0.111
  YS02001610           JUNCTION      0.00   550.17     0  01:42           0        1.52       0.141
  YS02001613           JUNCTION      0.00   557.15     0  01:42           0        1.52       0.098
  YS02001616           JUNCTION      0.00   572.15     0  01:42           0        1.52       0.017
  YS02001619           JUNCTION    373.17   928.11     0  01:42       0.994        2.51      -0.009
  YS02001622           JUNCTION      0.00   903.10     0  01:42           0        2.51      -0.013
  YS02001625           JUNCTION      0.00   905.70     0  01:42           0        2.51       0.369
  YS02001629           JUNCTION      0.00   905.50     0  01:42           0        2.51       0.021
  YS02001633           JUNCTION    313.15  1186.75     0  01:43       0.668        3.18       0.097
  YS02001641           JUNCTION      0.00  1183.89     0  01:43           0        3.18       0.083
  YS02001644           JUNCTION    284.35  1467.00     0  01:43       0.577        3.75       0.085
  YS02001647           JUNCTION      0.00  1472.27     0  01:43           0        3.73       0.008
  YS02001649           JUNCTION      0.00  1765.07     0  01:44           0        4.24       0.007
  YS02001652           JUNCTION      0.00   304.99     0  01:44           0       0.501      -0.434
  YS02001655           JUNCTION      0.00   281.81     0  01:40           0       0.503       0.350
  YS02001658           JUNCTION      0.00   281.84     0  01:40           0       0.503      -0.009
  YS02001661           JUNCTION      0.00   281.59     0  01:40           0       0.504       0.073
  YS02001664           JUNCTION    281.73   281.73     0  01:40       0.503       0.503      -0.008
  YS02001745           JUNCTION    198.14   198.14     0  01:40       0.323       0.323      -0.003
  YS02001748           JUNCTION      0.00   198.06     0  01:40           0       0.323       0.002
  YS02001751           JUNCTION      0.00   197.98     0  01:40           0       0.323       0.371
  YS02001754           JUNCTION      0.00   201.04     0  01:41           0       0.321      -0.508
  YS02001757           JUNCTION      0.00  2393.62     0  01:44           0        5.69       0.070
  YS02001759           JUNCTION    269.56   561.67     0  01:46       0.439        1.12      -0.022
  YS02001762           JUNCTION      0.00   344.19     0  01:46           0       0.684       0.014
  YS02001765           JUNCTION      0.00   340.34     0  01:47           0       0.684       0.014
  YS02001767           JUNCTION      0.00   358.41     0  01:47           0       0.684       0.005
  YS02001770           JUNCTION    372.38   372.38     0  01:41       0.685       0.717      -0.015
  YS02001774           JUNCTION      0.00    58.93     0  01:45           0      0.0451       2.700
  YS02001779           JUNCTION      0.00    39.30     0  01:45           0      0.0125       0.122
  YS02001783           JUNCTION      0.00   920.81     0  01:46           0        2.07       0.000
  YS02001784           JUNCTION      0.00   920.70     0  01:46           0        2.07       0.001
  YS02001786           JUNCTION      0.00   922.48     0  01:46           0        2.07       0.008
  YS02001788           JUNCTION      0.00   921.16     0  01:47           0        2.07       0.006
  YS02001790           JUNCTION      0.00   924.52     0  01:47           0        2.07       0.024
  YS02001791           JUNCTION      0.00   978.31     0  01:47           0        2.07      -0.012
  YS02001793           JUNCTION      0.00   941.35     0  01:47           0        2.07       0.009
  YS02001882           JUNCTION      0.00    43.23     0  01:40           0      0.0135       3.340
  YS02001884           JUNCTION      0.00   102.92     0  01:40           0      0.0488       4.235
  YS02001887           JUNCTION    318.81   318.81     0  01:39       0.466         0.5       0.775
  YS02001890           JUNCTION      0.00   295.34     0  01:41           0        0.46       0.975
  YS02001895           JUNCTION      0.00   273.79     0  01:41           0       0.456       0.502
  YS02001898           JUNCTION      0.00   263.41     0  01:41           0       0.453      -0.173
  YS02001901           JUNCTION      0.00   222.63     0  01:46           0       0.457       0.602
  YS02001904           JUNCTION      0.00   228.80     0  01:46           0       0.468       0.527
  YS02001907           JUNCTION      0.00   638.25     0  01:49           0        1.47       1.138
  YS02001910           JUNCTION      0.00   445.63     0  01:48           0       0.995       0.603
  YS02001915           JUNCTION    309.95   440.92     0  01:49       0.653       0.996       0.085
  YS02001918           JUNCTION      0.00   171.91     0  01:49           0       0.343       0.016
  YS02001920           JUNCTION      0.00   156.38     0  01:49           0       0.344       0.170
  YS02001923           JUNCTION      0.00   142.89     0  01:44           0       0.344      -0.005
  YS02001926           JUNCTION      0.00   143.05     0  01:44           0       0.344       0.073
  YS02001929           JUNCTION    143.10   143.10     0  01:44       0.344       0.344      -0.008
  YS02006553           JUNCTION      0.00   638.44     0  01:49           0        1.47       0.757
  YS02006556           JUNCTION      0.00   638.54     0  01:49           0         1.5       0.493
  YS02006558           JUNCTION    380.64   922.92     0  01:46       0.668        2.12       0.143
  YS02006561           JUNCTION      0.00   923.41     0  01:46           0        2.07      -0.004
  YS02163301           JUNCTION      0.00   873.95     0  01:43           0        2.51       0.052
  YS02163601           JUNCTION      0.00  1186.50     0  01:43           0        3.17       0.149
  YS02164001           JUNCTION      0.00  1186.06     0  01:43           0        3.17       0.066
  CC-1                 OUTFALL       0.00   683.00     0  01:57           0        1.35       0.000
  CC-2                 OUTFALL       0.00     0.00     0  00:00           0           0       0.000 ltr
  JK-1                 OUTFALL       0.00  1000.00     0  00:05           0        1.11       0.000
  JK-2                 OUTFALL       0.00  1000.00     0  00:05           0           1       0.000
  WSC                  OUTFALL       0.00   479.72     0  02:17           0        6.09       0.000
  CC-storage           STORAGE       0.00  2329.63     0  01:45           0        7.91      -0.309
  JK-storage           STORAGE       0.00   940.07     0  01:47           0        2.22      -0.713
  
  
  **********************
  Node Surcharge Summary
  **********************
  
  Surcharging occurs when water rises above the top of the highest conduit.
  ---------------------------------------------------------------------
                                               Max. Height   Min. Depth
                                   Hours       Above Crown    Below Rim
  Node                 Type      Surcharged         Meters       Meters
  ---------------------------------------------------------------------
  WS02006109           JUNCTION        1.57          0.416        1.404
  WS02006110           JUNCTION        0.03          0.544        1.306
  WS02006111           JUNCTION        0.01          0.856        1.014
  WS02006112           JUNCTION        0.03          1.680        0.000
  WS02006113           JUNCTION        0.01          0.705        1.225
  WS02006115           JUNCTION        0.01          0.682        1.568
  WS02006116           JUNCTION        0.01          0.053        2.237
  WS02006228           JUNCTION        1.55          0.810        1.390
  WS02006229           JUNCTION        1.58          0.510        1.940
  WS02006230           JUNCTION        0.02          0.173        1.397
  WS02006231           JUNCTION        0.04          0.261        1.269
  WS02006232           JUNCTION        1.63          0.443        1.037
  WS02006234           JUNCTION        0.08          0.431        0.809
  WS02006235           JUNCTION        1.57          0.533        0.757
  WS02006238           JUNCTION        1.60          0.558        0.872
  WS02006239           JUNCTION        1.58          0.521        0.769
  WS02006240           JUNCTION        1.58          0.510        0.880
  WS02006242           JUNCTION        1.66          0.559        0.261
  WS02006243           JUNCTION        1.60          0.471        0.299
  WS02006245           JUNCTION        1.60          0.441        0.409
  WS02006247           JUNCTION        1.61          0.447        0.313
  WS02006248           JUNCTION        1.59          0.375        0.005
  WS02006249           JUNCTION        1.61          0.390        0.000
  WS02006251           JUNCTION        0.04          0.188        0.992
  WS02006252           JUNCTION        1.79          1.100        0.000
  WS02006256           JUNCTION        7.85          2.050        0.000
  YS02001580           JUNCTION        0.01          0.450        0.000
  YS02001583           JUNCTION        0.01          0.500        0.000
  YS02001586           JUNCTION        0.24          0.510        0.000
  YS02001590           JUNCTION        0.32          0.750        0.000
  YS02001593           JUNCTION        0.32          0.695        0.145
  YS02001596           JUNCTION        0.42          1.070        0.000
  YS02001600           JUNCTION        0.53          1.190        0.000
  YS02001601           JUNCTION        0.83          1.440        0.000
  YS02001602           JUNCTION        0.72          1.270        0.000
  YS02001605           JUNCTION        0.68          1.180        0.000
  YS02001607           JUNCTION        0.25          0.680        0.000
  YS02001610           JUNCTION        0.27          0.680        0.000
  YS02001613           JUNCTION        0.24          0.700        0.000
  YS02001616           JUNCTION        0.19          0.610        0.000
  YS02001619           JUNCTION        0.17          0.610        0.000
  YS02001622           JUNCTION        0.16          0.620        0.000
  YS02001625           JUNCTION        0.36          0.733        0.047
  YS02001629           JUNCTION        0.01          0.470        0.000
  YS02001633           JUNCTION        0.37          0.713        0.347
  YS02001641           JUNCTION        0.28          0.363        0.737
  YS02001644           JUNCTION        0.21          0.258        0.662
  YS02001783           JUNCTION        0.11          0.061        1.539
  YS02001784           JUNCTION        0.05          0.016        1.474
  YS02001887           JUNCTION        0.09          0.062        0.888
  YS02001890           JUNCTION        0.12          0.088        0.672
  YS02001901           JUNCTION        0.05          0.044        0.826
  YS02001904           JUNCTION        0.01          0.019        0.831
  YS02001907           JUNCTION        0.34          0.342        0.608
  YS02001910           JUNCTION        0.16          0.137        0.963
  YS02006553           JUNCTION        0.35          0.343        0.847
  YS02006556           JUNCTION        0.26          0.255        1.095
  YS02006558           JUNCTION        0.25          0.227        1.173
  YS02163301           JUNCTION        0.35          0.794        0.236
  YS02163601           JUNCTION        0.40          0.599        0.481
  YS02164001           JUNCTION        0.29          0.427        0.673
  
  
  *********************
  Node Flooding Summary
  *********************
  
  Flooding refers to all water that overflows a node, whether it ponds or not.
  --------------------------------------------------------------------------
                                                             Total   Maximum
                                 Maximum   Time of Max       Flood    Ponded
                        Hours       Rate    Occurrence      Volume     Depth
  Node                 Flooded       LPS   days hr:min    10^6 ltr    Meters
  --------------------------------------------------------------------------
  WS02006112              0.01   1405.86      0  00:00       0.047     0.000
  WS02006249              0.04     77.73      0  02:08       0.009     0.000
  WS02006252              0.01      0.91      0  01:50       0.000     0.000
  WS02006256              0.06    283.27      0  01:44       0.022     0.000
  YS02001580              0.01     51.92      0  01:42       0.000     0.000
  YS02001583              0.01     95.08      0  01:42       0.000     0.000
  YS02001586              0.01     35.65      0  01:42       0.000     0.000
  YS02001590              0.01     52.64      0  01:39       0.000     0.000
  YS02001596              0.01     59.85      0  01:38       0.000     0.000
  YS02001600              0.01      0.76      0  01:42       0.000     0.000
  YS02001601              0.17    210.87      0  01:43       0.061     0.000
  YS02001602              0.01     14.76      0  01:42       0.000     0.000
  YS02001605              0.01      5.12      0  01:42       0.000     0.000
  YS02001607              0.01     18.67      0  01:42       0.000     0.000
  YS02001610              0.01     42.90      0  01:42       0.000     0.000
  YS02001613              0.01      8.19      0  01:42       0.000     0.000
  YS02001616              0.01     48.18      0  01:42       0.000     0.000
  YS02001619              0.01     27.66      0  01:42       0.000     0.000
  YS02001622              0.01     54.94      0  01:42       0.000     0.000
  YS02001629              0.01     78.55      0  01:42       0.000     0.000
  
  
  **********************
  Storage Volume Summary
  **********************
  
  --------------------------------------------------------------------------------------------------
                         Average     Avg  Evap Exfil       Maximum     Max    Time of Max    Maximum
                          Volume    Pcnt  Pcnt  Pcnt        Volume    Pcnt     Occurrence    Outflow
  Storage Unit           1000 m3    Full  Loss  Loss       1000 m3    Full    days hr:min        LPS
  --------------------------------------------------------------------------------------------------
  CC-storage               2.096      33     0     0         3.588      56       0  02:10    1083.00
  JK-storage               0.066      23     0     0         0.211      73       0  01:44    2000.00
  
  
  ***********************
  Outfall Loading Summary
  ***********************
  
  -----------------------------------------------------------
                         Flow       Avg       Max       Total
                         Freq      Flow      Flow      Volume
  Outfall Node           Pcnt       LPS       LPS    10^6 ltr
  -----------------------------------------------------------
  CC-1                   4.38    683.00    683.00       1.352
  CC-2                   0.00      0.00      0.00       0.000
  JK-1                   3.79   1000.00   1000.00       1.106
  JK-2                   3.47   1000.00   1000.00       1.004
  WSC                  100.00    221.26    479.72       6.092
  -----------------------------------------------------------
  System                22.33   2904.26    479.72       9.554
  
  
  ********************
  Link Flow Summary
  ********************
  
  -----------------------------------------------------------------------------
                                 Maximum  Time of Max   Maximum    Max/    Max/
                                  |Flow|   Occurrence   |Veloc|    Full    Full
  Link                 Type          LPS  days hr:min     m/sec    Flow   Depth
  -----------------------------------------------------------------------------
  1                    CONDUIT    479.72     0  02:17      2.71    0.17    0.28
  WS02003060WS02003069 CONDUIT    482.44     0  02:14      1.60    0.19    0.31
  WS02003066WSF200     CONDUIT    463.98     0  02:14      2.75    0.08    0.21
  WS02003067WS02003066 CONDUIT    464.09     0  02:14      1.11    0.15    0.40
  WS02003069WS02003072 CONDUIT    483.10     0  02:15      1.32    0.23    0.36
  WS02003072WS02003073 CONDUIT    481.10     0  02:16      1.37    1.04    0.35
  WS02004401WS02004402 CONDUIT   1248.69     0  00:01      2.52    1.50    0.84
  WS02004402WS02004403 CONDUIT    929.44     0  00:01      2.21    1.34    0.87
  WS02004403WS02004404 CONDUIT    877.02     0  00:01      2.01    0.63    0.92
  WS02004404WS02004405 CONDUIT    827.31     0  00:01      2.30    8.11    0.94
  WS02004405WS02004406 CONDUIT    768.45     0  00:02      2.19    1.52    0.93
  WS02004406WS02004407 CONDUIT    492.51     0  02:11      0.99    0.22    0.61
  WS02004407WS02004409 CONDUIT    490.83     0  02:12      2.06    0.17    0.45
  WS02004409WS02004410 CONDUIT    484.53     0  02:12      1.39    0.63    0.62
  WS02004410WS02004411 CONDUIT    480.31     0  02:13      1.32    0.66    0.63
  WS02004411WS02004412 CONDUIT    472.55     0  02:13      1.30    0.67    0.65
  WS02004412WS02004413 CONDUIT    466.83     0  02:13      1.26    0.31    0.73
  WS02004413WS02003067 CONDUIT    463.90     0  02:14      1.03    0.20    0.56
  WS02006109WS02006110 CONDUIT   1446.81     0  00:00      2.88    2.78    1.00
  WS02006110WS02006113 CONDUIT    561.11     0  02:08      1.35    0.51    1.00
  WS02006111WS02006112 CONDUIT   2307.30     0  00:00      9.18    1.10    1.00
  WS02006112WS02006115 CONDUIT    953.54     0  00:00      1.24    0.56    1.00
  WS02006113WS02006111 CONDUIT   1180.41     0  00:00      2.46    1.41    1.00
  WS02006115WS02006116 CONDUIT   1264.47     0  00:00      1.74    1.62    1.00
  WS02006116WS02004401 CONDUIT   1786.04     0  00:00      2.94    2.46    0.81
  WS02006228WS02006109 CONDUIT    869.18     0  00:00      1.91    3.80    1.00
  WS02006229WS02006228 CONDUIT    546.81     0  02:08      1.09    1.81    1.00
  WS02006230WS02006229 CONDUIT    696.39     0  00:00      1.89   15.50    1.00
  WS02006231WS02006230 CONDUIT    567.69     0  02:07      1.91    8.61    1.00
  WS02006232WS02006231 CONDUIT    572.90     0  02:07      1.80    1.20    1.00
  WS02006234WS02006232 CONDUIT    571.62     0  02:07      1.49    1.16    1.00
  WS02006235WS02006234 CONDUIT    567.71     0  02:07      1.48    5.99    1.00
  WS02006238WS02006235 CONDUIT    420.97     0  02:10      1.09    0.94    1.00
  WS02006239WS02006238 CONDUIT    419.23     0  02:10      1.09    1.34    1.00
  WS02006240WS02006239 CONDUIT    419.31     0  02:10      1.09    1.32    1.00
  WS02006242WS02006240 CONDUIT    416.95     0  02:10      1.08    1.66    1.00
  WS02006243WS02006242 CONDUIT    417.33     0  02:10      1.16    0.89    1.00
  WS02006245WS02006243 CONDUIT    416.75     0  02:10      1.28    1.23    1.00
  WS02006247WS02006245 CONDUIT    415.62     0  02:10      1.24    3.30    1.00
  WS02006248WS02006247 CONDUIT    415.06     0  02:10      1.28    0.90    1.00
  WS02006249WS02006248 CONDUIT    414.91     0  02:10      1.31    2.27    1.00
  WS02006251WS02006249 CONDUIT    420.03     0  01:51      1.75    1.21    1.00
  WS02006252WS02006251 CONDUIT    402.55     0  02:08     17.92    1.48    1.00
  WS02006256WS02006235 CONDUIT    250.40     0  01:44      3.54    2.65    1.00
  WSF200WS02003060     CONDUIT    464.77     0  02:14      1.99    0.10    0.26
  YS02001580YS02001583 CONDUIT     86.00     0  01:42      0.62    0.33    1.00
  YS02001583YS02001586 CONDUIT    107.59     0  01:41      0.49    0.16    1.00
  YS02001586YS02001590 CONDUIT    232.36     0  01:43      1.29    0.41    1.00
  YS02001590YS02001593 CONDUIT    232.32     0  01:43      1.01    1.46    1.00
  YS02001593YS02001596 CONDUIT    232.34     0  01:43      1.67    0.37    1.00
  YS02001596YS02001600 CONDUIT    232.40     0  01:43      1.16    0.45    1.00
  YS02001600YS02001601 CONDUIT    232.34     0  01:43      0.82    0.40    1.00
  YS02001601YS02001602 CONDUIT    555.16     0  01:42      1.96    2.01    1.00
  YS02001602YS02001605 CONDUIT    555.32     0  01:42      1.96   11.75    1.00
  YS02001605YS02001607 CONDUIT    555.23     0  01:42      1.96    3.04    1.00
  YS02001607YS02001610 CONDUIT    550.17     0  01:42      0.76    0.52    1.00
  YS02001610YS02001613 CONDUIT    557.15     0  01:42      0.73    0.64    1.00
  YS02001613YS02001616 CONDUIT    572.15     0  01:42      0.74    0.49    1.00
  YS02001616YS02001619 CONDUIT    563.78     0  01:42      0.76    0.98    1.00
  YS02001619YS02001622 CONDUIT    903.10     0  01:42      1.48    1.33    1.00
  YS02001622YS02001625 CONDUIT    905.70     0  01:42      1.15    0.48    1.00
  YS02001625YS02001629 CONDUIT    905.50     0  01:42      1.17    0.43    1.00
  YS02001629YS02163301 CONDUIT    873.95     0  01:43      1.11    1.08    1.00
  YS02001633YS02163601 CONDUIT   1186.50     0  01:43      1.51    1.25    1.00
  YS02001641YS02001644 CONDUIT   1184.88     0  01:43      1.51    3.83    1.00
  YS02001644YS02001647 CONDUIT   1472.27     0  01:43      2.04    0.86    0.87
  YS02001647YS02001649 CONDUIT   1497.47     0  01:43      2.30    0.79    0.79
  YS02001649YS02001757 CONDUIT   1759.40     0  01:44      2.52    1.07    0.83
  YS02001652YS02001649 CONDUIT    333.26     0  01:44      1.12    0.17    0.74
  YS02001655YS02001652 CONDUIT    304.99     0  01:44      1.81    0.15    0.49
  YS02001658YS02001655 CONDUIT    281.81     0  01:40      1.92    0.12    0.31
  YS02001661YS02001658 CONDUIT    281.84     0  01:40      2.07    0.11    0.23
  YS02001664YS02001661 CONDUIT    281.59     0  01:40      1.86    0.09    0.25
  YS02001745YS02001748 CONDUIT    198.06     0  01:40      1.96    0.08    0.19
  YS02001748YS02001751 CONDUIT    197.98     0  01:40      1.64    0.10    0.21
  YS02001751YS02001754 CONDUIT    201.04     0  01:41      1.66    0.10    0.32
  YS02001754YS02001757 CONDUIT    224.60     0  01:45      0.86    0.09    0.66
  YS02001757CaochengTiaoxuchi CONDUIT   2329.63     0  01:45      3.58    1.01    0.89
  YS02001759YS02001757 CONDUIT    553.27     0  01:46      1.29    0.39    0.78
  YS02001762YS02001759 CONDUIT    363.85     0  01:46      0.66    0.42    0.73
  YS02001765YS02001762 CONDUIT    344.19     0  01:46      0.78    0.32    0.69
  YS02001767YS02001765 CONDUIT    340.34     0  01:47      0.94    0.43    0.66
  YS02001770YS02001767 CONDUIT    358.41     0  01:47      0.93    1.42    0.65
  YS02001774YS02001770 CONDUIT     58.93     0  01:45      0.22    0.04    0.69
  YS02001779YS02001774 CONDUIT     46.81     0  01:49      0.10    0.02    0.61
  YS02001783YS02001784 CONDUIT    920.70     0  01:46      1.83    1.27    1.00
  YS02001784YS02001785 CONDUIT    922.48     0  01:46      1.92    2.15    0.91
  YS02001786YS02001788 CONDUIT    921.16     0  01:47      2.33    1.77    0.74
  YS02001788YS02001790 CONDUIT    924.52     0  01:47      2.46    0.68    0.71
  YS02001790YS02001791 CONDUIT    978.31     0  01:47      3.08    1.06    0.61
  YS02001791YS02001793 CONDUIT    941.35     0  01:47      6.19    0.40    0.35
  YS02001793JiankangQianchi CONDUIT    940.07     0  01:47      1.94    0.07    0.59
  YS02001882YS02001884 CONDUIT     43.23     0  01:40      0.19    0.05    0.95
  YS02001884YS02001887 CONDUIT    102.92     0  01:40      0.16    0.14    1.00
  YS02001887YS02001890 CONDUIT    295.34     0  01:41      0.45    0.51    1.00
  YS02001890YS02001895 CONDUIT    273.79     0  01:41      0.46    0.13    0.94
  YS02001895YS02001898 CONDUIT    263.41     0  01:41      0.68    0.46    0.88
  YS02001898YS02001901 CONDUIT    222.63     0  01:46      0.55    0.14    0.95
  YS02001901YS02001904 CONDUIT    228.80     0  01:46      0.33    0.35    1.00
  YS02001904YS02001907 CONDUIT    224.89     0  01:46      0.30    0.08    1.00
  YS02001907YS02006553 CONDUIT    638.44     0  01:49      0.71    0.75    1.00
  YS02001910YS02001907 CONDUIT    446.71     0  01:48      0.57    0.25    1.00
  YS02001915YS02001910 CONDUIT    445.63     0  01:48      0.98    0.22    0.97
  YS02001918YS02001915 CONDUIT    182.59     0  01:49      0.42    0.10    0.75
  YS02001920YS02001918 CONDUIT    171.91     0  01:49      0.73    0.17    0.62
  YS02001923YS02001920 CONDUIT    156.38     0  01:49      0.84    0.07    0.52
  YS02001926YS02001923 CONDUIT    142.89     0  01:44      0.88    0.20    0.26
  YS02001929YS02001926 CONDUIT    143.05     0  01:44      0.96    0.07    0.24
  YS02006553YS02006556 CONDUIT    638.54     0  01:49      0.81    0.55    1.00
  YS02006556YS02006558 CONDUIT    638.91     0  01:49      0.81    0.50    1.00
  YS02006558YS02006561 CONDUIT    923.41     0  01:46      3.52    2.04    0.88
  YS02006561YS02001783 CONDUIT    920.81     0  01:46      2.18    0.48    0.78
  YS02163301YS02001633 CONDUIT    874.15     0  01:43      1.11    0.82    1.00
  YS02163601YS02164001 CONDUIT   1186.06     0  01:43      1.51    1.05    1.00
  YS02164001YS02001641 CONDUIT   1183.89     0  01:43      1.51    1.62    1.00
  CC-R1                PUMP       683.00     0  01:57              1.00
  CC-R2                PUMP         0.00     0  00:00              0.00
  CC-S1                PUMP       200.00     0  00:05              1.00
  CC-S2                PUMP       200.00     0  01:50              1.00
  JK-R1                PUMP      1000.00     0  00:05              1.00
  JK-R2                PUMP      1000.00     0  00:05              1.00
  JK-S                 PUMP       300.00     0  01:44              1.00
  
  
  ***************************
  Flow Classification Summary
  ***************************
  
  -------------------------------------------------------------------------------------
                      Adjusted    ---------- Fraction of Time in Flow Class ---------- 
                       /Actual         Up    Down  Sub   Sup   Up    Down  Norm  Inlet 
  Conduit               Length    Dry  Dry   Dry   Crit  Crit  Crit  Crit  Ltd   Ctrl  
  -------------------------------------------------------------------------------------
  1                       1.00   0.00  0.00  0.00  0.00  1.00  0.00  0.00  0.23  0.00
  WS02003060WS02003069    1.00   0.00  0.00  0.00  0.98  0.02  0.00  0.00  0.70  0.00
  WS02003066WSF200        1.00   0.02  0.00  0.00  0.00  0.98  0.00  0.00  0.97  0.00
  WS02003067WS02003066    1.00   0.01  0.01  0.00  0.98  0.00  0.00  0.00  0.00  0.00
  WS02003069WS02003072    1.00   0.00  0.00  0.00  1.00  0.00  0.00  0.00  0.77  0.00
  WS02003072WS02003073    1.00   0.00  0.00  0.00  0.00  0.00  0.00  1.00  0.00  0.00
  WS02004401WS02004402    1.00   0.00  0.00  0.00  1.00  0.00  0.00  0.00  0.00  0.00
  WS02004402WS02004403    1.00   0.00  0.00  0.00  1.00  0.00  0.00  0.00  0.00  0.00
  WS02004403WS02004404    1.00   0.00  0.00  0.00  1.00  0.00  0.00  0.00  0.00  0.00
  WS02004404WS02004405    1.00   0.00  0.00  0.00  1.00  0.00  0.00  0.00  0.02  0.00
  WS02004405WS02004406    1.00   0.00  0.00  0.00  1.00  0.00  0.00  0.00  0.00  0.00
  WS02004406WS02004407    1.00   0.00  0.00  0.00  1.00  0.00  0.00  0.00  0.00  0.00
  WS02004407WS02004409    1.00   0.00  0.00  0.00  1.00  0.00  0.00  0.00  0.99  0.00
  WS02004409WS02004410    1.00   0.00  0.00  0.00  1.00  0.00  0.00  0.00  0.00  0.00
  WS02004410WS02004411    1.00   0.00  0.00  0.00  1.00  0.00  0.00  0.00  0.00  0.00
  WS02004411WS02004412    1.00   0.00  0.00  0.00  1.00  0.00  0.00  0.00  0.00  0.00
  WS02004412WS02004413    1.00   0.00  0.00  0.00  0.99  0.00  0.00  0.00  0.00  0.00
  WS02004413WS02003067    1.00   0.00  0.01  0.00  0.00  0.00  0.99  0.00  0.00  0.00
  WS02006109WS02006110    1.00   0.00  0.00  0.00  1.00  0.00  0.00  0.00  0.00  0.00
  WS02006110WS02006113    1.00   0.00  0.00  0.00  1.00  0.00  0.00  0.00  0.00  0.00
  WS02006111WS02006112    1.00   0.00  0.00  0.00  1.00  0.00  0.00  0.00  1.00  0.00
  WS02006112WS02006115    1.00   0.00  0.00  0.00  1.00  0.00  0.00  0.00  0.00  0.00
  WS02006113WS02006111    1.00   0.00  0.00  0.00  0.00  1.00  0.00  0.00  0.19  0.00
  WS02006115WS02006116    1.00   0.00  0.00  0.00  1.00  0.00  0.00  0.00  0.00  0.00
  WS02006116WS02004401    1.00   0.00  0.00  0.00  1.00  0.00  0.00  0.00  0.00  0.00
  WS02006228WS02006109    1.00   0.00  0.00  0.00  1.00  0.00  0.00  0.00  0.00  0.00
  WS02006229WS02006228    1.00   0.00  0.00  0.00  1.00  0.00  0.00  0.00  0.00  0.00
  WS02006230WS02006229    1.00   0.00  0.00  0.00  1.00  0.00  0.00  0.00  0.00  0.00
  WS02006231WS02006230    1.00   0.00  0.00  0.00  0.12  0.00  0.88  0.00  0.00  0.00
  WS02006232WS02006231    1.00   0.00  0.00  0.00  1.00  0.00  0.00  0.00  0.00  0.00
  WS02006234WS02006232    1.00   0.00  0.00  0.00  1.00  0.00  0.00  0.00  0.00  0.00
  WS02006235WS02006234    1.00   0.00  0.00  0.00  0.97  0.00  0.03  0.00  0.00  0.00
  WS02006238WS02006235    1.00   0.00  0.00  0.00  1.00  0.00  0.00  0.00  0.00  0.00
  WS02006239WS02006238    1.00   0.00  0.00  0.00  1.00  0.00  0.00  0.00  0.00  0.00
  WS02006240WS02006239    1.00   0.01  0.00  0.00  0.92  0.00  0.00  0.07  0.00  0.00
  WS02006242WS02006240    1.00   0.01  0.00  0.00  0.98  0.00  0.01  0.00  0.00  0.00
  WS02006243WS02006242    1.00   0.01  0.00  0.00  0.98  0.00  0.00  0.01  0.29  0.00
  WS02006245WS02006243    1.00   0.01  0.00  0.00  0.96  0.00  0.00  0.03  0.00  0.00
  WS02006247WS02006245    1.00   0.00  0.00  0.00  0.98  0.00  0.00  0.01  0.00  0.00
  WS02006248WS02006247    1.00   0.00  0.00  0.00  0.99  0.00  0.00  0.01  0.29  0.00
  WS02006249WS02006248    1.00   0.00  0.00  0.00  0.91  0.00  0.09  0.00  0.00  0.00
  WS02006251WS02006249    1.00   0.00  0.00  0.00  0.99  0.00  0.00  0.00  0.25  0.00
  WS02006252WS02006251    1.00   0.00  0.06  0.00  0.00  0.00  0.93  0.00  0.00  0.00
  WS02006256WS02006235    1.00   0.00  0.00  0.00  1.00  0.00  0.00  0.00  0.00  0.00
  WSF200WS02003060        1.00   0.00  0.02  0.00  0.04  0.93  0.00  0.00  0.50  0.00
  YS02001580YS02001583    1.00   0.29  0.60  0.00  0.11  0.00  0.00  0.00  0.75  0.00
  YS02001583YS02001586    1.00   0.40  0.47  0.00  0.13  0.00  0.00  0.00  0.75  0.00
  YS02001586YS02001590    1.00   0.20  0.00  0.00  0.30  0.07  0.00  0.44  0.33  0.00
  YS02001590YS02001593    1.00   0.21  0.02  0.00  0.07  0.00  0.70  0.00  0.00  0.00
  YS02001593YS02001596    1.00   0.23  0.00  0.00  0.08  0.00  0.00  0.69  0.02  0.00
  YS02001596YS02001600    1.00   0.23  0.00  0.00  0.12  0.01  0.00  0.65  0.06  0.00
  YS02001600YS02001601    1.00   0.22  0.02  0.00  0.77  0.00  0.00  0.00  0.65  0.00
  YS02001601YS02001602    1.00   0.20  0.03  0.00  0.77  0.00  0.00  0.00  0.00  0.00
  YS02001602YS02001605    1.00   0.23  0.00  0.00  0.77  0.00  0.00  0.00  0.00  0.00
  YS02001605YS02001607    1.00   0.23  0.00  0.00  0.77  0.00  0.00  0.00  0.00  0.00
  YS02001607YS02001610    1.00   0.22  0.02  0.00  0.76  0.00  0.00  0.00  0.02  0.00
  YS02001610YS02001613    1.00   0.21  0.00  0.00  0.79  0.00  0.00  0.00  0.02  0.00
  YS02001613YS02001616    1.00   0.21  0.00  0.00  0.79  0.00  0.00  0.00  0.01  0.00
  YS02001616YS02001619    1.00   0.20  0.00  0.00  0.80  0.00  0.00  0.00  0.00  0.00
  YS02001619YS02001622    1.00   0.20  0.00  0.00  0.80  0.00  0.00  0.00  0.33  0.00
  YS02001622YS02001625    1.00   0.21  0.00  0.00  0.79  0.00  0.00  0.00  0.06  0.00
  YS02001625YS02001629    1.00   0.21  0.06  0.00  0.09  0.00  0.64  0.00  0.00  0.00
  YS02001629YS02163301    1.00   0.27  0.00  0.00  0.73  0.00  0.00  0.00  0.00  0.00
  YS02001633YS02163601    1.00   0.22  0.00  0.00  0.78  0.00  0.00  0.00  0.02  0.00
  YS02001641YS02001644    1.00   0.20  0.01  0.00  0.79  0.00  0.00  0.00  0.00  0.00
  YS02001644YS02001647    1.00   0.20  0.07  0.00  0.73  0.00  0.00  0.00  0.00  0.00
  YS02001647YS02001649    1.00   0.25  0.02  0.00  0.38  0.35  0.00  0.00  0.60  0.00
  YS02001649YS02001757    1.00   0.00  0.25  0.00  0.53  0.22  0.00  0.00  0.17  0.00
  YS02001652YS02001649    1.00   0.25  0.00  0.00  0.73  0.02  0.00  0.00  0.63  0.00
  YS02001655YS02001652    1.00   0.25  0.00  0.00  0.10  0.01  0.00  0.64  0.09  0.00
  YS02001658YS02001655    1.00   0.25  0.00  0.00  0.56  0.19  0.00  0.00  0.79  0.00
  YS02001661YS02001658    1.00   0.25  0.00  0.00  0.33  0.43  0.00  0.00  0.79  0.00
  YS02001664YS02001661    1.00   0.20  0.00  0.00  0.70  0.10  0.00  0.00  0.87  0.00
  YS02001745YS02001748    1.00   0.20  0.00  0.00  0.00  0.00  0.00  0.80  0.00  0.00
  YS02001748YS02001751    1.00   0.20  0.00  0.00  0.62  0.18  0.00  0.00  0.73  0.00
  YS02001751YS02001754    1.00   0.21  0.00  0.00  0.08  0.01  0.00  0.71  0.08  0.00
  YS02001754YS02001757    1.00   0.00  0.21  0.00  0.76  0.03  0.00  0.00  0.71  0.00
  YS02001757CaochengTiaoxuchi    1.00   0.00  0.00  0.00  0.96  0.04  0.00  0.00  0.65  0.00
  YS02001759YS02001757    1.00   0.00  0.20  0.00  0.76  0.04  0.00  0.00  0.50  0.00
  YS02001762YS02001759    1.00   0.20  0.02  0.00  0.78  0.00  0.00  0.00  0.06  0.00
  YS02001765YS02001762    1.00   0.21  0.00  0.00  0.79  0.00  0.00  0.00  0.57  0.00
  YS02001767YS02001765    1.00   0.21  0.00  0.00  0.79  0.00  0.00  0.00  0.01  0.00
  YS02001770YS02001767    1.00   0.20  0.00  0.00  0.80  0.00  0.00  0.00  0.00  0.00
  YS02001774YS02001770    1.00   0.24  0.00  0.00  0.68  0.00  0.08  0.00  0.03  0.00
  YS02001779YS02001774    1.00   0.24  0.60  0.00  0.17  0.00  0.00  0.00  0.65  0.00
  YS02001783YS02001784    1.00   0.28  0.00  0.00  0.72  0.00  0.00  0.00  0.59  0.00
  YS02001784YS02001785    1.00   0.28  0.00  0.00  0.72  0.00  0.00  0.00  0.40  0.00
  YS02001786YS02001788    1.00   0.28  0.00  0.00  0.58  0.15  0.00  0.00  0.00  0.00
  YS02001788YS02001790    1.00   0.28  0.00  0.00  0.12  0.60  0.00  0.00  0.70  0.00
  YS02001790YS02001791    1.00   0.28  0.00  0.00  0.00  0.71  0.00  0.00  0.16  0.00
  YS02001791YS02001793    1.00   0.28  0.00  0.00  0.00  0.72  0.00  0.00  0.00  0.00
  YS02001793JiankangQianchi    1.00   0.00  0.29  0.00  0.71  0.00  0.00  0.00  0.80  0.00
  YS02001882YS02001884    1.00   0.27  0.00  0.00  0.73  0.00  0.00  0.00  0.00  0.00
  YS02001884YS02001887    1.00   0.24  0.02  0.00  0.74  0.00  0.00  0.00  0.00  0.00
  YS02001887YS02001890    1.00   0.20  0.02  0.00  0.75  0.00  0.03  0.00  0.00  0.00
  YS02001890YS02001895    1.00   0.22  0.05  0.00  0.73  0.00  0.00  0.00  0.00  0.00
  YS02001895YS02001898    1.00   0.27  0.00  0.00  0.72  0.00  0.01  0.00  0.00  0.00
  YS02001898YS02001901    1.00   0.27  0.00  0.00  0.73  0.00  0.00  0.00  0.00  0.00
  YS02001901YS02001904    1.00   0.27  0.00  0.00  0.73  0.00  0.00  0.00  0.00  0.00
  YS02001904YS02001907    1.00   0.21  0.07  0.00  0.73  0.00  0.00  0.00  0.00  0.00
  YS02001907YS02006553    1.00   0.21  0.05  0.00  0.75  0.00  0.00  0.00  0.01  0.00
  YS02001910YS02001907    1.00   0.20  0.00  0.00  0.74  0.00  0.00  0.05  0.03  0.00
  YS02001915YS02001910    1.00   0.20  0.00  0.00  0.78  0.01  0.00  0.00  0.01  0.00
  YS02001918YS02001915    1.00   0.20  0.07  0.00  0.73  0.00  0.00  0.00  0.76  0.00
  YS02001920YS02001918    1.00   0.25  0.02  0.00  0.73  0.00  0.00  0.00  0.00  0.00
  YS02001923YS02001920    1.00   0.25  0.00  0.00  0.75  0.00  0.00  0.00  0.81  0.00
  YS02001926YS02001923    1.00   0.21  0.05  0.00  0.00  0.00  0.75  0.00  0.00  0.00
  YS02001929YS02001926    1.00   0.20  0.00  0.00  0.80  0.00  0.00  0.00  0.87  0.00
  YS02006553YS02006556    1.00   0.24  0.00  0.00  0.76  0.00  0.00  0.00  0.02  0.00
  YS02006556YS02006558    1.00   0.20  0.02  0.00  0.77  0.00  0.00  0.00  0.00  0.00
  YS02006558YS02006561    1.00   0.28  0.00  0.00  0.00  0.72  0.00  0.00  0.19  0.00
  YS02006561YS02001783    1.00   0.28  0.00  0.00  0.09  0.64  0.00  0.00  0.73  0.00
  YS02163301YS02001633    1.00   0.20  0.06  0.00  0.73  0.00  0.00  0.00  0.00  0.00
  YS02163601YS02164001    1.00   0.23  0.02  0.00  0.75  0.00  0.00  0.00  0.02  0.00
  YS02164001YS02001641    1.00   0.22  0.03  0.00  0.75  0.00  0.00  0.00  0.00  0.00
  
  
  *************************
  Conduit Surcharge Summary
  *************************
  
  ----------------------------------------------------------------------------
                                                           Hours        Hours 
                         --------- Hours Full --------   Above Full   Capacity
  Conduit                Both Ends  Upstream  Dnstream   Normal Flow   Limited
  ----------------------------------------------------------------------------
  WS02003072WS02003073        0.01      0.01      0.01      0.05         0.01
  WS02004401WS02004402        0.01      0.01      0.01      0.01         0.01
  WS02004402WS02004403        0.01      0.01      0.01      0.02         0.01
  WS02004404WS02004405        0.01      0.01      0.01      5.52         0.01
  WS02004405WS02004406        0.01      0.01      0.01      0.01         0.01
  WS02006109WS02006110        0.03      0.03      1.64      0.05         0.01
  WS02006110WS02006113        0.01      0.01      1.60      0.01         0.01
  WS02006111WS02006112        0.01      0.01      1.84      0.01         0.01
  WS02006112WS02006115        0.01      0.01      0.02      0.01         0.01
  WS02006113WS02006111        0.01      0.01      0.01      0.01         0.01
  WS02006115WS02006116        0.01      0.01      0.01      0.01         0.01
  WS02006116WS02004401        0.01      0.01      0.01      0.02         0.01
  WS02006228WS02006109        1.56      1.63      1.57      1.91         1.56
  WS02006229WS02006228        1.55      1.58      1.55      1.77         1.55
  WS02006230WS02006229        1.68      1.75      1.69      5.70         1.68
  WS02006231WS02006230        0.02      0.02      0.04      5.49         0.01
  WS02006232WS02006231        0.04      0.04      1.63      0.04         0.01
  WS02006234WS02006232        1.52      1.52      1.63      0.04         0.04
  WS02006235WS02006234        0.08      0.08      1.57      5.39         0.01
  WS02006238WS02006235        1.58      1.58      1.64      0.01         0.01
  WS02006239WS02006238        1.60      1.63      1.60      1.73         1.58
  WS02006240WS02006239        1.58      1.59      1.58      1.72         1.56
  WS02006242WS02006240        1.58      1.58      1.68      1.79         0.01
  WS02006243WS02006242        1.60      1.60      1.66      0.01         0.01
  WS02006245WS02006243        1.60      1.60      1.60      1.70         1.56
  WS02006247WS02006245        1.60      1.62      1.60      5.37         1.60
  WS02006248WS02006247        1.60      1.60      1.61      0.01         0.01
  WS02006249WS02006248        1.59      1.59      1.61      5.35         0.01
  WS02006251WS02006249        1.61      1.61      1.61      1.73         1.60
  WS02006252WS02006251        1.74      1.74      1.78      1.74         0.01
  WS02006256WS02006235        5.43      5.44      7.84      0.06         0.01
  YS02001580YS02001583        0.01      0.01      0.02      0.01         0.01
  YS02001583YS02001586        0.01      0.01      0.24      0.01         0.01
  YS02001586YS02001590        0.25      0.25      0.32      0.01         0.01
  YS02001590YS02001593        0.32      0.32      0.34      0.33         0.01
  YS02001593YS02001596        0.34      0.34      0.42      0.01         0.01
  YS02001596YS02001600        0.45      0.45      0.53      0.01         0.01
  YS02001600YS02001601        0.58      0.58      0.83      0.01         0.01
  YS02001601YS02001602        0.72      0.72      0.87      0.56         0.01
  YS02001602YS02001605        0.68      0.68      0.72      1.72         0.01
  YS02001605YS02001607        0.64      0.68      0.64      0.78         0.64
  YS02001607YS02001610        0.25      0.25      0.27      0.01         0.01
  YS02001610YS02001613        0.24      0.24      0.27      0.01         0.01
  YS02001613YS02001616        0.19      0.19      0.24      0.01         0.01
  YS02001616YS02001619        0.17      0.17      0.19      0.01         0.01
  YS02001619YS02001622        0.16      0.17      0.16      0.35         0.16
  YS02001622YS02001625        0.16      0.16      0.36      0.01         0.01
  YS02001625YS02001629        0.01      0.01      0.36      0.01         0.01
  YS02001629YS02163301        0.34      0.34      0.35      0.21         0.20
  YS02001633YS02163601        0.37      0.37      0.40      0.26         0.26
  YS02001641YS02001644        0.21      0.28      0.21      0.92         0.21
  YS02001644YS02001647        0.01      0.01      0.21      0.01         0.01
  YS02001649YS02001757        0.01      0.01      0.01      0.03         0.01
  YS02001757CaochengTiaoxuchi        0.01      0.01      1.71      0.02         0.01
  YS02001770YS02001767        0.01      0.01      0.01      0.23         0.01
  YS02001783YS02001784        0.05      0.11      0.05      0.28         0.05
  YS02001784YS02001785        0.01      0.05      0.01      0.46         0.01
  YS02001786YS02001788        0.01      0.01      0.01      0.37         0.01
  YS02001790YS02001791        0.01      0.01      0.01      0.04         0.01
  YS02001793JiankangQianchi        0.01      0.01      6.37      0.01         0.01
  YS02001884YS02001887        0.05      0.05      0.09      0.01         0.01
  YS02001887YS02001890        0.12      0.12      0.14      0.01         0.01
  YS02001890YS02001895        0.01      0.01      0.17      0.01         0.01
  YS02001898YS02001901        0.01      0.01      0.05      0.01         0.01
  YS02001901YS02001904        0.01      0.01      0.05      0.01         0.01
  YS02001904YS02001907        0.01      0.01      0.35      0.01         0.01
  YS02001907YS02006553        0.48      0.48      0.52      0.01         0.01
  YS02001910YS02001907        0.16      0.16      0.34      0.01         0.01
  YS02001915YS02001910        0.01      0.01      0.16      0.01         0.01
  YS02006553YS02006556        0.26      0.26      0.35      0.01         0.01
  YS02006556YS02006558        0.30      0.30      0.36      0.01         0.01
  YS02006558YS02006561        0.01      0.25      0.01      0.42         0.01
  YS02006561YS02001783        0.01      0.01      0.11      0.01         0.01
  YS02163301YS02001633        0.35      0.35      0.39      0.01         0.01
  YS02163601YS02164001        0.29      0.29      0.40      0.10         0.01
  YS02164001YS02001641        0.28      0.29      0.28      0.44         0.28
  
  
  ***************
  Pumping Summary
  ***************
  
  ---------------------------------------------------------------------------------------------------------
                                                  Min       Avg       Max     Total     Power    % Time Off
                        Percent   Number of      Flow      Flow      Flow    Volume     Usage    Pump Curve
  Pump                 Utilized   Start-Ups       LPS       LPS       LPS  10^6 ltr     Kw-hr    Low   High
  ---------------------------------------------------------------------------------------------------------
  CC-R1                    6.87           1      0.00    683.00    683.00     1.352     24.84    0.0    0.0
  CC-R2                    0.00           0      0.00      0.00      0.00     0.000      0.00    0.0    0.0
  CC-S1                   68.54          31      0.00    200.00    200.00     3.948     24.83    0.0    0.0
  CC-S2                   21.72           1      0.00    200.00    200.00     1.251      7.36    0.0    0.0
  JK-R1                    3.86          47      0.00   1000.00   1000.00     1.112      9.05    0.0    0.0
  JK-R2                    3.51          47      0.00   1000.00   1000.00     1.010      7.77    0.0    0.0
  JK-S                     0.74           2      0.00    300.00    300.00     0.064      0.78    0.0    0.0
  

  Analysis begun on:  Fri Sep  8 22:11:43 2023
  Analysis ended on:  Fri Sep  8 22:11:57 2023
  Total elapsed time: 00:00:14