
  OWA STORM WATER MANAGEMENT MODEL - VERSION v5.1.14 (OWA 2022-07-31)
  --------------------------------------------------------------

  WARNING 04: minimum elevation drop used for Conduit WS02004404WS02004405
  WARNING 03: negative offset ignored for Link YS02001904YS02001907
  
  *********************************************************
  NOTE: The summary statistics displayed in this report are
  based on results found at every computational time step,  
  not just on results from each reporting time step.
  *********************************************************
  
  ****************
  Analysis Options
  ****************
  Flow Units ............... LPS
  Process Models:
    Rainfall/Runoff ........ YES
    RDII ................... NO
    Snowmelt ............... NO
    Groundwater ............ NO
    Flow Routing ........... YES
    Ponding Allowed ........ NO
    Water Quality .......... NO
  Infiltration Method ...... HORTON
  Flow Routing Method ...... DYNWAVE
  Surcharge Method ......... EXTRAN
  Starting Date ............ 08/28/2015 08:00:00
  Ending Date .............. 08/28/2015 16:00:00
  Antecedent Dry Days ...... 8.0
  Report Time Step ......... 00:01:00
  Wet Time Step ............ 00:01:00
  Dry Time Step ............ 00:01:00
  Routing Time Step ........ 30.00 sec
  Variable Time Step ....... YES
  Maximum Trials ........... 8
  Number of Threads ........ 1
  Head Tolerance ........... 0.001500 m
  
  
  **************************        Volume         Depth
  Runoff Quantity Continuity     hectare-m            mm
  **************************     ---------       -------
  Total Precipitation ......         3.316        99.971
  Evaporation Loss .........         0.000         0.000
  Infiltration Loss ........         0.101         3.048
  Surface Runoff ...........         3.183        95.958
  Final Storage ............         0.033         0.996
  Continuity Error (%) .....        -0.030
  
  
  **************************        Volume        Volume
  Flow Routing Continuity        hectare-m      10^6 ltr
  **************************     ---------     ---------
  Dry Weather Inflow .......         0.000         0.000
  Wet Weather Inflow .......         3.184        31.841
  Groundwater Inflow .......         0.000         0.000
  RDII Inflow ..............         0.000         0.000
  External Inflow ..........         0.083         0.834
  External Outflow .........         2.054        20.541
  Flooding Loss ............         1.310        13.099
  Evaporation Loss .........         0.000         0.000
  Exfiltration Loss ........         0.000         0.000
  Initial Stored Volume ....         0.243         2.431
  Final Stored Volume ......         0.181         1.806
  Continuity Error (%) .....        -0.970
  
  
  *************************
  Highest Continuity Errors
  *************************
  Node YS02001583 (-15.68%)
  Node YS02001884 (3.77%)
  
  
  ***************************
  Time-Step Critical Elements
  ***************************
  Link WS02006252WS02006251 (75.26%)
  Link YS02001791YS02001793 (7.54%)
  Link WS02006235WS02006234 (5.00%)
  Link WS02004404WS02004405 (3.10%)
  Link WS02006238WS02006235 (2.27%)
  
  
  ********************************
  Highest Flow Instability Indexes
  ********************************
  Link WS02006113WS02006111 (58)
  Link WS02006111WS02006112 (31)
  Link WS02006256WS02006235 (12)
  Link WS02006110WS02006113 (8)
  Link YS02001882YS02001884 (8)
  
  
  *************************
  Routing Time Step Summary
  *************************
  Minimum Time Step           :     0.00 sec
  Average Time Step           :     1.15 sec
  Maximum Time Step           :    30.00 sec
  Percent in Steady State     :    -0.00
  Average Iterations per Step :     2.60
  Percent Not Converging      :     6.40
  
  
  ***************************
  Subcatchment Runoff Summary
  ***************************
  
  ------------------------------------------------------------------------------------------------------------------------------
                            Total      Total      Total      Total     Imperv       Perv      Total       Total     Peak  Runoff
                           Precip      Runon       Evap      Infil     Runoff     Runoff     Runoff      Runoff   Runoff   Coeff
  Subcatchment                 mm         mm         mm         mm         mm         mm         mm    10^6 ltr      LPS
  ------------------------------------------------------------------------------------------------------------------------------
  sub60                     81.29       0.00       0.00       1.85      70.35       7.91      78.26        1.03   633.18   0.963
  sub61                     81.29       0.00       0.00       2.67      66.36      11.15      77.51        1.42   870.88   0.953
  sub62                     81.29       0.00       0.00       1.23      73.52       5.28      78.79        2.16  1220.92   0.969
  sub63                     81.29       0.00       0.00       4.89      56.76      18.70      75.46        1.71   948.69   0.928
  sub64                     81.29       0.00       0.00       2.48      67.90       9.72      77.63        1.86   975.23   0.955
  sub65                     81.29       0.00       0.00       2.14      69.48       8.43      77.91        2.14  1084.15   0.958
  sub66                     81.29       0.00       0.00       5.96      56.65      17.62      74.27        3.46  1379.27   0.914
  sub67                    153.32       0.00       0.00       1.23     139.84      11.04     150.88        2.81  1971.92   0.984
  sub68                    153.32       0.00       0.00       2.35     130.69      19.12     149.81        4.12  2743.32   0.977
  sub69                     81.29       0.00       0.00       1.96      69.00      10.24      79.23        2.93  1459.46   0.975
  sub70                     81.29       0.00       0.00       6.41      53.49      21.23      74.73        2.16   781.26   0.919
  sub71                    153.32       0.00       0.00       1.34     139.74      10.93     150.68        3.94  2475.65   0.983
  sub72                    153.32       0.00       0.00       1.19     141.19       9.54     150.73        2.07  1241.37   0.983
  
  
  ******************
  Node Depth Summary
  ******************
  
  ---------------------------------------------------------------------------------
                                 Average  Maximum  Maximum  Time of Max    Reported
                                   Depth    Depth      HGL   Occurrence   Max Depth
  Node                 Type       Meters   Meters   Meters  days hr:min      Meters
  ---------------------------------------------------------------------------------
  WS02003060           JUNCTION     0.25     0.38     5.31     0  02:13        0.38
  WS02003066           JUNCTION     0.21     0.29     5.85     0  02:13        0.29
  WS02003067           JUNCTION     0.53     0.69     6.01     0  02:13        0.69
  WS02003069           JUNCTION     0.27     0.42     5.01     0  02:14        0.42
  WS02003072           JUNCTION     0.34     0.49     4.86     0  02:15        0.49
  WS02003073           JUNCTION     0.19     0.29     4.36     0  02:15        0.29
  WS02004401           JUNCTION     0.61     0.84     6.84     0  02:11        0.84
  WS02004402           JUNCTION     0.64     0.87     6.83     0  02:11        0.87
  WS02004403           JUNCTION     0.67     0.89     6.82     0  02:11        0.88
  WS02004404           JUNCTION     0.75     0.96     6.81     0  02:11        0.96
  WS02004405           JUNCTION     0.74     0.95     6.80     0  02:11        0.95
  WS02004406           JUNCTION     0.76     0.95     6.78     0  02:11        0.95
  WS02004407           JUNCTION     0.19     0.29     6.61     0  02:11        0.29
  WS02004409           JUNCTION     0.42     0.66     6.43     0  02:12        0.66
  WS02004410           JUNCTION     0.44     0.67     6.39     0  02:12        0.67
  WS02004411           JUNCTION     0.46     0.68     6.36     0  02:12        0.68
  WS02004412           JUNCTION     0.48     0.69     6.33     0  02:13        0.69
  WS02004413           JUNCTION     0.65     0.85     6.32     0  02:13        0.85
  WS02006109           JUNCTION     0.66     1.36     7.97     0  01:56        1.00
  WS02006110           JUNCTION     0.67     1.45     8.04     0  00:00        1.01
  WS02006111           JUNCTION     0.19     1.67     8.37     0  00:00        0.56
  WS02006112           JUNCTION     0.77     2.68     8.56     0  00:00        1.29
  WS02006113           JUNCTION     0.28     1.50     8.40     0  00:00        0.45
  WS02006115           JUNCTION     0.49     1.69     7.83     0  00:00        0.86
  WS02006116           JUNCTION     0.58     1.11     7.15     0  00:00        0.82
  WS02006228           JUNCTION     0.65     1.64     8.29     0  00:00        1.02
  WS02006229           JUNCTION     0.61     1.31     8.00     0  00:00        1.03
  WS02006230           JUNCTION     0.60     1.38     8.13     0  01:56        1.15
  WS02006231           JUNCTION     0.42     1.09     8.21     0  01:56        0.89
  WS02006232           JUNCTION     0.55     1.27     8.31     0  01:56        1.10
  WS02006234           JUNCTION     0.47     1.58     8.74     0  02:15        1.14
  WS02006235           JUNCTION     0.50     2.00     9.16     0  02:15        2.00
  WS02006238           JUNCTION     0.53     2.15     9.29     0  02:15        2.15
  WS02006239           JUNCTION     0.50     1.78     8.99     0  02:15        1.78
  WS02006240           JUNCTION     0.46     1.46     8.75     0  02:15        1.22
  WS02006242           JUNCTION     0.55     1.55     8.82     0  02:30        1.29
  WS02006243           JUNCTION     0.44     1.36     8.78     0  02:30        1.19
  WS02006245           JUNCTION     0.45     1.29     8.77     0  02:30        1.15
  WS02006247           JUNCTION     0.48     1.25     8.75     0  02:30        1.16
  WS02006248           JUNCTION     0.43     1.10     8.69     0  01:56        1.09
  WS02006249           JUNCTION     0.47     1.09     8.69     0  01:55        1.09
  WS02006251           JUNCTION     0.47     1.28     8.95     0  02:25        1.12
  WS02006252           JUNCTION     0.38     1.50     9.74     0  01:31        0.69
  WS02006256           JUNCTION     0.76     2.35     9.28     0  01:55        2.35
  WSF200               JUNCTION     0.18     0.29     5.52     0  02:13        0.29
  YS02001580           JUNCTION     0.07     1.05     9.59     0  01:24        0.77
  YS02001583           JUNCTION     0.10     1.14     9.64     0  01:24        0.82
  YS02001586           JUNCTION     0.15     1.13     9.30     0  01:23        1.13
  YS02001590           JUNCTION     0.22     1.40     9.26     0  01:23        1.36
  YS02001593           JUNCTION     0.17     1.46     9.32     0  01:23        1.29
  YS02001596           JUNCTION     0.23     1.80     9.22     0  01:22        1.65
  YS02001600           JUNCTION     0.27     1.87     9.00     0  01:22        1.86
  YS02001601           JUNCTION     0.42     2.06     8.90     0  01:22        2.06
  YS02001602           JUNCTION     0.35     1.87     8.77     0  01:24        1.87
  YS02001605           JUNCTION     0.33     1.78     8.68     0  01:24        1.78
  YS02001607           JUNCTION     0.33     1.68     8.53     0  01:24        1.68
  YS02001610           JUNCTION     0.36     1.68     8.48     0  01:24        1.68
  YS02001613           JUNCTION     0.33     1.70     8.54     0  01:24        1.70
  YS02001616           JUNCTION     0.27     1.61     8.52     0  01:24        1.61
  YS02001619           JUNCTION     0.26     1.61     8.54     0  01:24        1.61
  YS02001622           JUNCTION     0.25     1.62     8.52     0  01:24        1.60
  YS02001625           JUNCTION     0.47     1.78     8.38     0  01:24        1.78
  YS02001629           JUNCTION     0.33     1.85     8.40     0  01:24        1.85
  YS02001633           JUNCTION     0.40     2.08     8.53     0  01:25        2.08
  YS02001641           JUNCTION     0.40     2.01     8.44     0  01:25        1.99
  YS02001644           JUNCTION     0.40     1.92     8.35     0  01:25        1.92
  YS02001647           JUNCTION     0.23     1.90     8.51     0  01:25        1.80
  YS02001649           JUNCTION     0.27     2.05     8.44     0  01:25        2.05
  YS02001652           JUNCTION     0.19     2.16     8.76     0  01:25        2.16
  YS02001655           JUNCTION     0.16     2.20     9.05     0  01:25        2.20
  YS02001658           JUNCTION     0.12     2.30     9.44     0  01:25        2.30
  YS02001661           JUNCTION     0.14     2.46     9.86     0  01:26        1.35
  YS02001664           JUNCTION     0.05     2.31    10.23     0  01:26        0.97
  YS02001745           JUNCTION     0.06     2.35     9.87     0  01:26        0.84
  YS02001748           JUNCTION     0.11     2.27     9.35     0  01:26        1.27
  YS02001751           JUNCTION     0.14     2.20     9.08     0  01:26        1.44
  YS02001754           JUNCTION     0.18     2.20     8.81     0  01:25        1.70
  YS02001757           JUNCTION     0.29     2.21     8.47     0  01:25        2.05
  YS02001759           JUNCTION     0.25     2.21     8.57     0  01:25        2.19
  YS02001762           JUNCTION     0.24     2.15     8.55     0  01:25        2.15
  YS02001765           JUNCTION     0.22     2.10     8.55     0  01:25        2.10
  YS02001767           JUNCTION     0.22     2.03     8.52     0  01:25        2.03
  YS02001770           JUNCTION     0.23     1.95     8.44     0  01:25        1.95
  YS02001774           JUNCTION     0.29     2.05     8.47     0  01:25        2.05
  YS02001779           JUNCTION     0.17     1.68     8.37     0  01:25        1.68
  YS02001783           JUNCTION     0.19     1.36     7.50     0  02:34        1.35
  YS02001784           JUNCTION     0.19     1.44     7.51     0  02:51        1.21
  YS02001786           JUNCTION     0.16     0.93     6.96     0  02:34        0.92
  YS02001788           JUNCTION     0.11     0.64     6.62     0  02:35        0.64
  YS02001790           JUNCTION     0.13     0.73     6.37     0  02:31        0.72
  YS02001791           JUNCTION     0.08     0.45     5.92     0  02:26        0.43
  YS02001793           JUNCTION     0.04     0.30     5.13     0  02:41        0.27
  YS02001882           JUNCTION     0.26     1.82     8.54     0  02:35        1.82
  YS02001884           JUNCTION     0.34     1.92     8.54     0  02:35        1.92
  YS02001887           JUNCTION     0.40     2.00     8.54     0  02:36        2.00
  YS02001890           JUNCTION     0.42     1.81     8.32     0  02:12        1.81
  YS02001895           JUNCTION     0.23     1.57     8.32     0  02:51        1.57
  YS02001898           JUNCTION     0.24     1.58     8.31     0  02:51        1.57
  YS02001901           JUNCTION     0.33     1.69     8.30     0  02:51        1.68
  YS02001904           JUNCTION     0.31     1.64     8.27     0  02:26        1.64
  YS02001907           JUNCTION     0.58     1.96     8.25     0  02:04        1.96
  YS02001910           JUNCTION     0.42     2.01     8.52     0  02:41        2.01
  YS02001915           JUNCTION     0.27     2.00     8.72     0  02:29        2.00
  YS02001918           JUNCTION     0.16     1.81     8.88     0  02:34        1.81
  YS02001920           JUNCTION     0.21     1.96     8.97     0  02:37        1.95
  YS02001923           JUNCTION     0.14     1.79     9.05     0  02:37        1.78
  YS02001926           JUNCTION     0.16     1.68     9.13     0  02:37        1.68
  YS02001929           JUNCTION     0.10     1.53     9.22     0  02:37        1.53
  YS02006553           JUNCTION     0.58     2.06     8.34     0  02:36        2.05
  YS02006556           JUNCTION     0.56     2.15     8.46     0  02:36        2.14
  YS02006558           JUNCTION     0.59     2.50     8.77     0  02:51        2.50
  YS02006561           JUNCTION     0.13     1.05     7.71     0  02:34        1.05
  YS02163301           JUNCTION     0.36     1.95     8.47     0  01:25        1.95
  YS02163601           JUNCTION     0.44     2.08     8.48     0  01:25        2.08
  YS02164001           JUNCTION     0.38     2.03     8.49     0  01:25        2.00
  CC-1                 OUTFALL      0.00     0.00     0.00     0  00:00        0.00
  CC-2                 OUTFALL      0.00     0.00     0.00     0  00:00        0.00
  JK-1                 OUTFALL      0.00     0.00     0.00     0  00:00        0.00
  JK-2                 OUTFALL      0.00     0.00     0.00     0  00:00        0.00
  WSC                  OUTFALL      0.19     0.29     0.96     0  02:16        0.29
  CC-storage           STORAGE      0.83     1.75     7.25     0  02:11        1.75
  JK-storage           STORAGE      1.41     4.22     5.02     0  02:41        4.11
  
  
  *******************
  Node Inflow Summary
  *******************
  
  -------------------------------------------------------------------------------------------------
                                  Maximum  Maximum                  Lateral       Total        Flow
                                  Lateral    Total  Time of Max      Inflow      Inflow     Balance
                                   Inflow   Inflow   Occurrence      Volume      Volume       Error
  Node                 Type           LPS      LPS  days hr:min    10^6 ltr    10^6 ltr     Percent
  -------------------------------------------------------------------------------------------------
  WS02003060           JUNCTION     16.53   537.97     0  02:13       0.476        7.17       0.032
  WS02003066           JUNCTION      0.00   520.86     0  02:13           0         6.7       0.019
  WS02003067           JUNCTION      0.00   520.58     0  02:13           0         6.7       0.061
  WS02003069           JUNCTION      0.32   538.43     0  02:14     0.00922        7.18       0.052
  WS02003072           JUNCTION      0.00   537.46     0  02:14           0        7.17       0.092
  WS02003073           JUNCTION      1.82   538.31     0  02:15      0.0524        7.22       0.074
  WS02004401           JUNCTION      0.00  1786.04     0  00:00           0        6.81       0.159
  WS02004402           JUNCTION      0.00  1248.69     0  00:01           0         6.8       0.160
  WS02004403           JUNCTION      0.00   929.44     0  00:01           0        6.79       0.157
  WS02004404           JUNCTION      0.00   877.02     0  00:01           0        6.78       0.158
  WS02004405           JUNCTION      0.00   827.31     0  00:01           0        6.77       0.158
  WS02004406           JUNCTION      0.00   768.45     0  00:02           0        6.76       0.316
  WS02004407           JUNCTION      0.00   529.45     0  02:11           0        6.73       0.015
  WS02004409           JUNCTION      0.00   529.02     0  02:11           0        6.73       0.037
  WS02004410           JUNCTION      0.00   526.98     0  02:12           0        6.73       0.063
  WS02004411           JUNCTION      0.00   525.00     0  02:12           0        6.73       0.082
  WS02004412           JUNCTION      0.00   522.93     0  02:12           0        6.72       0.107
  WS02004413           JUNCTION      0.00   521.44     0  02:12           0        6.71       0.197
  WS02006109           JUNCTION      0.00  1446.81     0  00:00           0        6.71      -0.058
  WS02006110           JUNCTION      0.00   556.41     0  01:56           0        6.68      -0.813
  WS02006111           JUNCTION      0.00  1180.41     0  00:00           0        6.74      -0.636
  WS02006112           JUNCTION      0.00  2307.30     0  00:00           0        6.78       0.003
  WS02006113           JUNCTION      0.00   572.09     0  01:56           0         6.7      -0.565
  WS02006115           JUNCTION      0.00   953.54     0  00:00           0        6.75      -0.530
  WS02006116           JUNCTION      0.00  1264.47     0  00:00           0        6.79      -0.345
  WS02006228           JUNCTION      0.00   869.18     0  00:00           0        6.69       0.005
  WS02006229           JUNCTION      0.00   556.80     0  01:56           0        6.68      -0.046
  WS02006230           JUNCTION     10.28   706.67     0  00:00       0.296        6.67       0.026
  WS02006231           JUNCTION      0.00   581.29     0  02:15           0        6.36       0.003
  WS02006232           JUNCTION      0.00   579.32     0  02:15           0        6.36       0.064
  WS02006234           JUNCTION      0.00   572.02     0  02:15           0        6.35      -0.015
  WS02006235           JUNCTION      0.00   562.94     0  02:15           0        6.35       0.026
  WS02006238           JUNCTION      0.00   423.82     0  02:30           0        6.06      -0.030
  WS02006239           JUNCTION      0.00   422.44     0  02:30           0        6.05      -0.075
  WS02006240           JUNCTION      0.00   418.62     0  02:20           0        6.05       0.005
  WS02006242           JUNCTION      0.00   418.49     0  02:00           0        6.05       0.036
  WS02006243           JUNCTION      0.00   418.25     0  02:45           0        6.05      -0.019
  WS02006245           JUNCTION      0.00   418.42     0  02:30           0        6.06       0.072
  WS02006247           JUNCTION      0.00   418.79     0  02:30           0        6.06       0.013
  WS02006248           JUNCTION      0.00   419.84     0  02:45           0        6.06       0.009
  WS02006249           JUNCTION      0.00   419.85     0  02:10           0        6.16       0.065
  WS02006251           JUNCTION      0.00   404.19     0  02:25           0        6.16       0.013
  WS02006252           JUNCTION      0.00   400.00     0  01:31           0        6.15      -0.158
  WS02006256           JUNCTION      0.00   300.00     0  01:55           0       0.448      -0.329
  WSF200               JUNCTION      0.00   521.00     0  02:13           0         6.7       0.007
  YS02001580           JUNCTION      0.00   319.28     0  01:24           0     0.00524      -1.482
  YS02001583           JUNCTION      0.00   316.49     0  01:24           0      0.0153     -13.556
  YS02001586           JUNCTION    781.26   781.26     0  01:32        2.16        2.17       0.070
  YS02001590           JUNCTION      0.00   318.11     0  02:00           0        1.59      -0.036
  YS02001593           JUNCTION      0.00   318.06     0  02:00           0        1.59       0.005
  YS02001596           JUNCTION      0.00   318.11     0  02:03           0        1.59      -0.015
  YS02001600           JUNCTION      0.00   318.04     0  02:00           0        1.59       0.011
  YS02001601           JUNCTION   1459.46  1776.97     0  01:30        2.93        4.52       0.003
  YS02001602           JUNCTION      0.00   603.45     0  01:24           0        2.58       0.014
  YS02001605           JUNCTION      0.00   603.43     0  01:24           0        2.41       0.020
  YS02001607           JUNCTION      0.00   603.38     0  01:24           0        2.41       0.065
  YS02001610           JUNCTION      0.00   769.70     0  01:32           0        2.79       0.062
  YS02001613           JUNCTION      0.00   559.47     0  01:24           0        2.13       0.069
  YS02001616           JUNCTION      0.00   675.88     0  01:24           0        2.14      -0.007
  YS02001619           JUNCTION   1379.27  1379.27     0  01:31        3.46        5.21      -0.007
  YS02001622           JUNCTION      0.00   986.93     0  01:24           0        4.82      -0.007
  YS02001625           JUNCTION      0.00  1374.43     0  01:33           0        5.11       0.173
  YS02001629           JUNCTION      0.00   800.12     0  02:07           0         3.8      -0.004
  YS02001633           JUNCTION   1084.15  1232.52     0  01:25        2.15        5.58       0.058
  YS02001641           JUNCTION      0.00  1226.90     0  01:25           0        5.22       0.048
  YS02001644           JUNCTION    975.23  1929.69     0  01:25        1.87        7.08       0.037
  YS02001647           JUNCTION      0.00  1931.61     0  01:25           0        6.51       0.001
  YS02001649           JUNCTION      0.00  2150.25     0  01:25           0        8.23       0.003
  YS02001652           JUNCTION      0.00  1093.94     0  01:27           0        1.72      -0.243
  YS02001655           JUNCTION      0.00  1094.07     0  01:27           0        1.71      -0.084
  YS02001658           JUNCTION      0.00  1094.20     0  01:27           0        1.72      -0.067
  YS02001661           JUNCTION      0.00  1097.15     0  01:27           0        1.72       0.011
  YS02001664           JUNCTION    948.69   948.69     0  01:28        1.71        1.71      -0.010
  YS02001745           JUNCTION    633.18   717.88     0  01:26        1.03        1.03       0.248
  YS02001748           JUNCTION      0.00   890.05     0  01:26           0        1.03      -0.451
  YS02001751           JUNCTION      0.00   890.20     0  01:25           0        1.04       0.213
  YS02001754           JUNCTION      0.00   747.77     0  01:25           0        1.04      -0.419
  YS02001757           JUNCTION      0.00  3641.94     0  01:27           0        12.5       0.045
  YS02001759           JUNCTION    870.88  1479.12     0  01:26        1.42        3.27      -0.017
  YS02001762           JUNCTION      0.00   726.98     0  01:39           0        1.85      -0.024
  YS02001765           JUNCTION      0.00   726.83     0  01:39           0        1.85      -0.034
  YS02001767           JUNCTION      0.00   726.71     0  01:38           0        1.85      -0.038
  YS02001770           JUNCTION   1220.92  1220.92     0  01:28        2.16        2.21      -0.017
  YS02001774           JUNCTION      0.00   855.04     0  01:25           0       0.377       0.198
  YS02001779           JUNCTION      0.00   859.20     0  01:25           0        0.33      -0.295
  YS02001783           JUNCTION      0.00  1246.30     0  02:36           0        6.43      -0.002
  YS02001784           JUNCTION      0.00  1245.94     0  02:36           0        6.43       0.003
  YS02001786           JUNCTION      0.00  1245.98     0  02:36           0        6.43      -0.001
  YS02001788           JUNCTION      0.00  1246.73     0  02:36           0        6.43       0.002
  YS02001790           JUNCTION      0.00  1249.04     0  02:35           0        6.43       0.032
  YS02001791           JUNCTION      0.00  1300.19     0  02:35           0        6.42      -0.048
  YS02001793           JUNCTION      0.00  1271.13     0  02:35           0        6.43       0.005
  YS02001882           JUNCTION      0.00    16.49     0  02:51           0      0.0144       2.860
  YS02001884           JUNCTION      0.00    38.60     0  01:22           0      0.0521       3.918
  YS02001887           JUNCTION   1971.92  1973.60     0  02:36        2.81        2.84       0.141
  YS02001890           JUNCTION      0.00  1975.13     0  02:36           0         2.8       0.149
  YS02001895           JUNCTION      0.00   518.08     0  02:21           0        1.96       0.096
  YS02001898           JUNCTION      0.00   518.82     0  02:21           0        1.95      -0.029
  YS02001901           JUNCTION      0.00   517.74     0  02:38           0        1.95       0.135
  YS02001904           JUNCTION      0.00   518.28     0  02:21           0        1.96       0.120
  YS02001907           JUNCTION      0.00  4010.32     0  02:36           0           8       0.203
  YS02001910           JUNCTION      0.00  1993.15     0  02:33           0        5.37       0.115
  YS02001915           JUNCTION   2475.65  3691.98     0  02:37        3.94        6.01       0.008
  YS02001918           JUNCTION      0.00  1243.44     0  02:37           0        2.07      -0.009
  YS02001920           JUNCTION      0.00  1242.78     0  02:37           0        2.07       0.017
  YS02001923           JUNCTION      0.00  1241.92     0  02:37           0        2.07       0.002
  YS02001926           JUNCTION      0.00  1242.08     0  02:37           0        2.07       0.005
  YS02001929           JUNCTION   1241.37  1241.37     0  02:37        2.07        2.07       0.003
  YS02006553           JUNCTION      0.00  1501.31     0  02:36           0        3.71       0.303
  YS02006556           JUNCTION      0.00  1501.79     0  02:37           0        3.72       0.200
  YS02006558           JUNCTION   2743.32  2743.32     0  02:37        4.12        7.14       0.043
  YS02006561           JUNCTION      0.00  1245.87     0  02:36           0        6.43      -0.003
  YS02163301           JUNCTION      0.00   801.48     0  02:07           0         3.8       0.034
  YS02163601           JUNCTION      0.00  1231.91     0  01:25           0        5.21       0.092
  YS02164001           JUNCTION      0.00  1230.51     0  01:25           0        5.21       0.035
  CC-1                 OUTFALL       0.00   683.00     0  01:34           0        4.12       0.000
  CC-2                 OUTFALL       0.00   683.00     0  01:39           0        3.11       0.000
  JK-1                 OUTFALL       0.00  1000.00     0  00:05           0        3.31       0.000
  JK-2                 OUTFALL       0.00  1000.00     0  00:05           0        2.78       0.000
  WSC                  OUTFALL       0.00   536.68     0  02:16           0        7.21       0.000
  CC-storage           STORAGE       0.00  3642.31     0  01:27           0        14.8      -0.219
  JK-storage           STORAGE       0.00  1301.48     0  02:35           0        6.58      -0.249
  
  
  **********************
  Node Surcharge Summary
  **********************
  
  Surcharging occurs when water rises above the top of the highest conduit.
  ---------------------------------------------------------------------
                                               Max. Height   Min. Depth
                                   Hours       Above Crown    Below Rim
  Node                 Type      Surcharged         Meters       Meters
  ---------------------------------------------------------------------
  WS02006109           JUNCTION        2.32          0.535        1.285
  WS02006110           JUNCTION        0.30          0.544        1.306
  WS02006111           JUNCTION        0.01          0.856        1.014
  WS02006112           JUNCTION        0.32          1.680        0.000
  WS02006113           JUNCTION        0.01          0.705        1.225
  WS02006115           JUNCTION        0.01          0.682        1.568
  WS02006116           JUNCTION        0.01          0.053        2.237
  WS02006228           JUNCTION        2.30          0.810        1.390
  WS02006229           JUNCTION        2.33          0.510        1.940
  WS02006230           JUNCTION        0.32          0.305        1.265
  WS02006231           JUNCTION        0.38          0.382        1.148
  WS02006232           JUNCTION        2.37          0.572        0.908
  WS02006234           JUNCTION        0.54          0.860        0.380
  WS02006235           JUNCTION        2.30          1.290        0.000
  WS02006238           JUNCTION        2.34          1.430        0.000
  WS02006239           JUNCTION        2.31          1.042        0.248
  WS02006240           JUNCTION        2.33          0.751        0.639
  WS02006242           JUNCTION        2.40          0.820        0.000
  WS02006243           JUNCTION        2.34          0.650        0.120
  WS02006245           JUNCTION        2.34          0.576        0.274
  WS02006247           JUNCTION        2.35          0.543        0.217
  WS02006248           JUNCTION        2.33          0.380        0.000
  WS02006249           JUNCTION        2.35          0.390        0.000
  WS02006251           JUNCTION        0.42          0.247        0.933
  WS02006252           JUNCTION        2.52          1.100        0.000
  WS02006256           JUNCTION        7.85          2.050        0.000
  YS02001580           JUNCTION        0.82          0.450        0.000
  YS02001583           JUNCTION        0.83          0.500        0.000
  YS02001586           JUNCTION        1.02          0.510        0.000
  YS02001590           JUNCTION        1.10          0.750        0.000
  YS02001593           JUNCTION        1.10          0.840        0.000
  YS02001596           JUNCTION        1.21          1.070        0.000
  YS02001600           JUNCTION        1.38          1.190        0.000
  YS02001601           JUNCTION        1.75          1.440        0.000
  YS02001602           JUNCTION        1.68          1.270        0.000
  YS02001605           JUNCTION        1.61          1.180        0.000
  YS02001607           JUNCTION        1.09          0.680        0.000
  YS02001610           JUNCTION        1.13          0.680        0.000
  YS02001613           JUNCTION        1.09          0.700        0.000
  YS02001616           JUNCTION        1.05          0.610        0.000
  YS02001619           JUNCTION        1.03          0.610        0.000
  YS02001622           JUNCTION        1.03          0.620        0.000
  YS02001625           JUNCTION        1.23          0.780        0.000
  YS02001629           JUNCTION        0.98          0.470        0.000
  YS02001633           JUNCTION        1.26          1.060        0.000
  YS02001641           JUNCTION        1.23          1.005        0.095
  YS02001644           JUNCTION        1.20          0.920        0.000
  YS02001647           JUNCTION        0.99          0.900        0.000
  YS02001649           JUNCTION        1.16          1.050        0.000
  YS02001652           JUNCTION        0.92          1.130        0.000
  YS02001655           JUNCTION        0.66          1.200        0.000
  YS02001658           JUNCTION        0.31          1.300        0.000
  YS02001661           JUNCTION        0.04          1.390        0.000
  YS02001664           JUNCTION        0.01          1.310        0.000
  YS02001745           JUNCTION        0.01          1.350        0.000
  YS02001748           JUNCTION        0.22          1.190        0.000
  YS02001751           JUNCTION        0.45          1.200        0.000
  YS02001754           JUNCTION        0.79          1.150        0.000
  YS02001757           JUNCTION        1.25          1.210        0.000
  YS02001759           JUNCTION        1.14          1.210        0.000
  YS02001762           JUNCTION        1.10          1.150        0.000
  YS02001765           JUNCTION        1.04          1.100        0.000
  YS02001767           JUNCTION        1.00          1.030        0.000
  YS02001770           JUNCTION        0.96          0.920        0.000
  YS02001774           JUNCTION        1.08          1.050        0.000
  YS02001779           JUNCTION        0.76          0.680        0.000
  YS02001783           JUNCTION        1.12          0.559        1.041
  YS02001784           JUNCTION        1.09          0.640        0.850
  YS02001786           JUNCTION        0.92          0.135        1.295
  YS02001882           JUNCTION        1.04          0.823        0.007
  YS02001884           JUNCTION        1.06          0.859        0.011
  YS02001887           JUNCTION        1.11          0.948        0.002
  YS02001890           JUNCTION        1.13          0.760        0.000
  YS02001895           JUNCTION        1.02          0.573        0.177
  YS02001898           JUNCTION        1.02          0.546        0.194
  YS02001901           JUNCTION        1.09          0.687        0.183
  YS02001904           JUNCTION        1.08          0.643        0.207
  YS02001907           JUNCTION        1.51          0.950        0.000
  YS02001910           JUNCTION        1.17          1.013        0.087
  YS02001915           JUNCTION        1.04          1.000        0.000
  YS02001918           JUNCTION        0.90          0.810        0.000
  YS02001920           JUNCTION        0.92          0.959        0.181
  YS02001923           JUNCTION        0.41          0.575        0.245
  YS02001926           JUNCTION        0.44          0.683        0.217
  YS02001929           JUNCTION        0.28          0.525        0.255
  YS02006553           JUNCTION        1.53          1.055        0.135
  YS02006556           JUNCTION        1.31          1.107        0.243
  YS02006558           JUNCTION        1.28          1.400        0.000
  YS02006561           JUNCTION        0.86          0.254        0.896
  YS02163301           JUNCTION        1.24          0.955        0.075
  YS02163601           JUNCTION        1.30          1.080        0.000
  YS02164001           JUNCTION        1.23          1.030        0.070
  
  
  *********************
  Node Flooding Summary
  *********************
  
  Flooding refers to all water that overflows a node, whether it ponds or not.
  --------------------------------------------------------------------------
                                                             Total   Maximum
                                 Maximum   Time of Max       Flood    Ponded
                        Hours       Rate    Occurrence      Volume     Depth
  Node                 Flooded       LPS   days hr:min    10^6 ltr    Meters
  --------------------------------------------------------------------------
  WS02006112              0.01   1405.86      0  00:00       0.047     0.000
  WS02006235              0.01     11.23      0  02:15       0.000     0.000
  WS02006238              0.01     10.10      0  02:15       0.000     0.000
  WS02006242              0.01      5.23      0  02:30       0.000     0.000
  WS02006248              0.01     14.04      0  02:15       0.000     0.000
  WS02006249              0.40     78.83      0  02:05       0.095     0.000
  WS02006252              0.01      0.91      0  01:31       0.000     0.000
  WS02006256              0.41    290.34      0  02:25       0.159     0.000
  YS02001580              0.01    308.37      0  01:24       0.002     0.000
  YS02001583              0.01    234.63      0  01:24       0.001     0.000
  YS02001586              0.66    463.71      0  01:32       0.571     0.000
  YS02001590              0.01    255.12      0  01:23       0.000     0.000
  YS02001593              0.01     98.44      0  01:23       0.000     0.000
  YS02001596              0.01    129.84      0  01:22       0.000     0.000
  YS02001600              0.01     14.81      0  01:22       0.000     0.000
  YS02001601              0.93   1379.17      0  01:30       1.940     0.000
  YS02001602              0.81     61.96      0  02:00       0.165     0.000
  YS02001605              0.01      9.23      0  01:24       0.000     0.000
  YS02001607              0.01    436.61      0  01:24       0.004     0.000
  YS02001610              0.72    769.67      0  01:32       1.041     0.000
  YS02001613              0.01    542.92      0  01:24       0.003     0.000
  YS02001616              0.01    598.99      0  01:24       0.004     0.000
  YS02001619              0.01    386.94      0  01:24       0.001     0.000
  YS02001622              0.01    453.63      0  01:24       0.001     0.000
  YS02001625              0.69   1374.39      0  01:33       1.664     0.000
  YS02001629              0.14    348.17      0  01:24       0.080     0.000
  YS02001633              0.01      3.11      0  01:25       0.000     0.000
  YS02001644              0.26   1153.48      0  01:27       0.552     0.000
  YS02001647              0.01     25.64      0  01:25       0.000     0.000
  YS02001649              0.01    148.36      0  01:26       0.003     0.000
  YS02001652              0.01    559.81      0  01:25       0.001     0.000
  YS02001655              0.01    462.03      0  01:25       0.001     0.000
  YS02001658              0.01    382.76      0  01:25       0.001     0.000
  YS02001661              0.01    325.02      0  01:26       0.000     0.000
  YS02001664              0.01    102.02      0  01:26       0.000     0.000
  YS02001745              0.01    311.46      0  01:26       0.000     0.000
  YS02001748              0.01    498.79      0  01:26       0.002     0.000
  YS02001751              0.01    231.58      0  01:26       0.001     0.000
  YS02001754              0.01    636.34      0  01:25       0.002     0.000
  YS02001757              0.01    416.58      0  01:25       0.000     0.000
  YS02001759              0.01    216.36      0  01:25       0.000     0.000
  YS02001762              0.01    278.33      0  01:25       0.000     0.000
  YS02001765              0.01    418.71      0  01:25       0.001     0.000
  YS02001767              0.01    423.09      0  01:25       0.001     0.000
  YS02001770              0.01    319.45      0  01:25       0.002     0.000
  YS02001774              0.01    349.78      0  01:25       0.000     0.000
  YS02001779              0.22    838.28      0  01:25       0.310     0.000
  YS02001890              0.48   1458.01      0  02:36       0.841     0.000
  YS02001907              0.83   4010.30      0  02:36       4.968     0.000
  YS02001915              0.22   1698.65      0  02:37       0.646     0.000
  YS02001918              0.03     26.12      0  02:37       0.001     0.000
  YS02006558              0.01     41.68      0  02:51       0.000     0.000
  YS02163601              0.01     12.95      0  01:25       0.000     0.000
  
  
  **********************
  Storage Volume Summary
  **********************
  
  --------------------------------------------------------------------------------------------------
                         Average     Avg  Evap Exfil       Maximum     Max    Time of Max    Maximum
                          Volume    Pcnt  Pcnt  Pcnt        Volume    Pcnt     Occurrence    Outflow
  Storage Unit           1000 m3    Full  Loss  Loss       1000 m3    Full    days hr:min        LPS
  --------------------------------------------------------------------------------------------------
  CC-storage               2.324      36     0     0         4.866      76       0  02:11    1766.00
  JK-storage               0.071      24     0     0         0.212      73       0  02:41    2300.00
  
  
  ***********************
  Outfall Loading Summary
  ***********************
  
  -----------------------------------------------------------
                         Flow       Avg       Max       Total
                         Freq      Flow      Flow      Volume
  Outfall Node           Pcnt       LPS       LPS    10^6 ltr
  -----------------------------------------------------------
  CC-1                  14.42    683.00    683.00       4.123
  CC-2                  11.02    683.00    683.00       3.113
  JK-1                   8.66   1000.00   1000.00       3.311
  JK-2                   7.49   1000.00   1000.00       2.779
  WSC                  100.00    251.50    536.68       7.215
  -----------------------------------------------------------
  System                28.32   3617.50    536.68      20.540
  
  
  ********************
  Link Flow Summary
  ********************
  
  -----------------------------------------------------------------------------
                                 Maximum  Time of Max   Maximum    Max/    Max/
                                  |Flow|   Occurrence   |Veloc|    Full    Full
  Link                 Type          LPS  days hr:min     m/sec    Flow   Depth
  -----------------------------------------------------------------------------
  1                    CONDUIT    536.68     0  02:16      2.80    0.19    0.29
  WS02003060WS02003069 CONDUIT    538.11     0  02:14      1.63    0.21    0.33
  WS02003066WSF200     CONDUIT    521.00     0  02:13      2.83    0.09    0.22
  WS02003067WS02003066 CONDUIT    520.86     0  02:13      1.19    0.17    0.41
  WS02003069WS02003072 CONDUIT    537.46     0  02:14      1.36    0.26    0.38
  WS02003072WS02003073 CONDUIT    536.49     0  02:15      1.42    1.16    0.37
  WS02004401WS02004402 CONDUIT   1248.69     0  00:01      2.52    1.50    0.86
  WS02004402WS02004403 CONDUIT    929.44     0  00:01      2.21    1.34    0.88
  WS02004403WS02004404 CONDUIT    877.02     0  00:01      2.01    0.63    0.92
  WS02004404WS02004405 CONDUIT    827.31     0  00:01      2.30    8.11    0.95
  WS02004405WS02004406 CONDUIT    768.45     0  00:02      2.19    1.52    0.95
  WS02004406WS02004407 CONDUIT    529.45     0  02:11      1.03    0.24    0.62
  WS02004407WS02004409 CONDUIT    529.02     0  02:11      2.06    0.19    0.47
  WS02004409WS02004410 CONDUIT    526.98     0  02:12      1.39    0.68    0.66
  WS02004410WS02004411 CONDUIT    525.00     0  02:12      1.32    0.72    0.68
  WS02004411WS02004412 CONDUIT    522.93     0  02:12      1.30    0.74    0.68
  WS02004412WS02004413 CONDUIT    521.44     0  02:12      1.26    0.35    0.77
  WS02004413WS02003067 CONDUIT    520.58     0  02:13      1.09    0.22    0.58
  WS02006109WS02006110 CONDUIT   1446.81     0  00:00      2.88    2.78    1.00
  WS02006110WS02006113 CONDUIT    572.09     0  01:56      1.39    0.52    1.00
  WS02006111WS02006112 CONDUIT   2307.30     0  00:00      9.18    1.10    1.00
  WS02006112WS02006115 CONDUIT    953.54     0  00:00      1.24    0.56    1.00
  WS02006113WS02006111 CONDUIT   1180.41     0  00:00      2.46    1.41    1.00
  WS02006115WS02006116 CONDUIT   1264.47     0  00:00      1.74    1.62    1.00
  WS02006116WS02004401 CONDUIT   1786.04     0  00:00      2.94    2.46    0.83
  WS02006228WS02006109 CONDUIT    869.18     0  00:00      1.91    3.80    1.00
  WS02006229WS02006228 CONDUIT    556.78     0  01:56      1.11    1.84    1.00
  WS02006230WS02006229 CONDUIT    696.39     0  00:00      1.89   15.50    1.00
  WS02006231WS02006230 CONDUIT    572.96     0  02:15      1.91    8.69    1.00
  WS02006232WS02006231 CONDUIT    581.29     0  02:15      1.80    1.22    1.00
  WS02006234WS02006232 CONDUIT    579.32     0  02:15      1.51    1.17    1.00
  WS02006235WS02006234 CONDUIT    572.02     0  02:15      1.49    6.04    1.00
  WS02006238WS02006235 CONDUIT    424.69     0  02:30      1.10    0.95    1.00
  WS02006239WS02006238 CONDUIT    423.82     0  02:30      1.10    1.36    1.00
  WS02006240WS02006239 CONDUIT    422.44     0  02:30      1.10    1.33    1.00
  WS02006242WS02006240 CONDUIT    418.62     0  02:20      1.09    1.66    1.00
  WS02006243WS02006242 CONDUIT    418.49     0  02:00      1.16    0.89    1.00
  WS02006245WS02006243 CONDUIT    418.25     0  02:45      1.28    1.24    1.00
  WS02006247WS02006245 CONDUIT    418.42     0  02:30      1.25    3.32    1.00
  WS02006248WS02006247 CONDUIT    418.79     0  02:30      1.28    0.91    1.00
  WS02006249WS02006248 CONDUIT    419.84     0  02:45      1.31    2.30    1.00
  WS02006251WS02006249 CONDUIT    419.85     0  02:10      1.75    1.21    1.00
  WS02006252WS02006251 CONDUIT    404.19     0  02:25     18.36    1.48    1.00
  WS02006256WS02006235 CONDUIT    211.02     0  02:25      2.99    2.23    1.00
  WSF200WS02003060     CONDUIT    521.44     0  02:13      2.04    0.12    0.28
  YS02001580YS02001583 CONDUIT    319.28     0  01:24      1.17    1.24    1.00
  YS02001583YS02001586 CONDUIT    316.49     0  01:24      1.38    0.48    1.00
  YS02001586YS02001590 CONDUIT    318.11     0  02:00      1.36    0.56    1.00
  YS02001590YS02001593 CONDUIT    318.06     0  02:00      1.12    2.00    1.00
  YS02001593YS02001596 CONDUIT    318.11     0  02:03      1.73    0.50    1.00
  YS02001596YS02001600 CONDUIT    318.04     0  02:00      1.21    0.62    1.00
  YS02001600YS02001601 CONDUIT    318.00     0  02:00      1.12    0.55    1.00
  YS02001601YS02001602 CONDUIT    603.45     0  01:24      2.13    2.18    1.00
  YS02001602YS02001605 CONDUIT    603.43     0  01:24      2.13   12.77    1.00
  YS02001605YS02001607 CONDUIT    603.38     0  01:24      2.13    3.31    1.00
  YS02001607YS02001610 CONDUIT    577.22     0  01:24      0.81    0.55    1.00
  YS02001610YS02001613 CONDUIT    534.77     0  01:24      0.77    0.62    1.00
  YS02001613YS02001616 CONDUIT    482.61     0  01:24      0.74    0.41    1.00
  YS02001616YS02001619 CONDUIT    449.32     0  02:20      0.66    0.78    1.00
  YS02001619YS02001622 CONDUIT    986.93     0  01:24      1.58    1.45    1.00
  YS02001622YS02001625 CONDUIT    950.21     0  01:31      1.21    0.51    1.00
  YS02001625YS02001629 CONDUIT    800.12     0  02:07      1.02    0.38    1.00
  YS02001629YS02163301 CONDUIT    801.48     0  02:07      1.02    0.99    1.00
  YS02001633YS02163601 CONDUIT   1231.91     0  01:25      1.57    1.29    1.00
  YS02001641YS02001644 CONDUIT   1226.02     0  01:25      1.56    3.96    1.00
  YS02001644YS02001647 CONDUIT   1931.61     0  01:25      2.46    1.13    1.00
  YS02001647YS02001649 CONDUIT   1933.89     0  01:25      2.46    1.02    1.00
  YS02001649YS02001757 CONDUIT   2148.65     0  01:25      2.74    1.30    1.00
  YS02001652YS02001649 CONDUIT   1094.28     0  01:27      1.39    0.54    1.00
  YS02001655YS02001652 CONDUIT   1093.94     0  01:27      1.90    0.53    1.00
  YS02001658YS02001655 CONDUIT   1094.07     0  01:27      2.26    0.46    1.00
  YS02001661YS02001658 CONDUIT   1094.20     0  01:27      2.65    0.43    1.00
  YS02001664YS02001661 CONDUIT   1097.15     0  01:27      2.69    0.34    1.00
  YS02001745YS02001748 CONDUIT    699.94     0  01:26      2.63    0.27    1.00
  YS02001748YS02001751 CONDUIT    700.36     0  01:26      2.09    0.35    1.00
  YS02001751YS02001754 CONDUIT    700.74     0  01:26      1.91    0.34    1.00
  YS02001754YS02001757 CONDUIT    700.36     0  01:26      0.89    0.28    1.00
  YS02001757CaochengTiaoxuchi CONDUIT   3642.31     0  01:27      5.11    1.58    1.00
  YS02001759YS02001757 CONDUIT   1479.77     0  01:26      1.88    1.05    1.00
  YS02001762YS02001759 CONDUIT    727.19     0  01:39      0.93    0.84    1.00
  YS02001765YS02001762 CONDUIT    726.98     0  01:39      0.93    0.68    1.00
  YS02001767YS02001765 CONDUIT    726.83     0  01:39      0.95    0.91    1.00
  YS02001770YS02001767 CONDUIT    726.71     0  01:38      1.13    2.88    1.00
  YS02001774YS02001770 CONDUIT    855.04     0  01:25      1.09    0.55    1.00
  YS02001779YS02001774 CONDUIT    859.20     0  01:25      1.10    0.43    1.00
  YS02001783YS02001784 CONDUIT   1245.94     0  02:36      2.48    1.72    1.00
  YS02001784YS02001785 CONDUIT   1245.98     0  02:36      2.48    2.90    1.00
  YS02001786YS02001788 CONDUIT   1246.73     0  02:36      2.62    2.40    0.90
  YS02001788YS02001790 CONDUIT   1249.04     0  02:35      2.81    0.92    0.84
  YS02001790YS02001791 CONDUIT   1300.19     0  02:35      3.46    1.41    0.71
  YS02001791YS02001793 CONDUIT   1271.13     0  02:35      6.79    0.55    0.45
  YS02001793JiankangQianchi CONDUIT   1301.48     0  02:35      2.60    0.10    0.65
  YS02001882YS02001884 CONDUIT     19.55     0  03:04      0.23    0.02    1.00
  YS02001884YS02001887 CONDUIT     45.89     0  03:06      0.19    0.06    1.00
  YS02001887YS02001890 CONDUIT   1975.13     0  02:36      2.51    3.38    1.00
  YS02001890YS02001895 CONDUIT    518.08     0  02:21      0.66    0.24    1.00
  YS02001895YS02001898 CONDUIT    518.82     0  02:21      0.66    0.90    1.00
  YS02001898YS02001901 CONDUIT    517.74     0  02:38      0.66    0.33    1.00
  YS02001901YS02001904 CONDUIT    518.28     0  02:21      0.66    0.80    1.00
  YS02001904YS02001907 CONDUIT    518.99     0  02:21      0.66    0.18    1.00
  YS02001907YS02006553 CONDUIT   1501.46     0  02:36      1.67    1.77    1.00
  YS02001910YS02001907 CONDUIT   1993.02     0  02:41      2.54    1.12    1.00
  YS02001915YS02001910 CONDUIT   1993.15     0  02:33      2.54    0.99    1.00
  YS02001918YS02001915 CONDUIT   1218.52     0  02:37      1.55    0.67    1.00
  YS02001920YS02001918 CONDUIT   1243.44     0  02:37      1.58    1.20    1.00
  YS02001923YS02001920 CONDUIT   1242.78     0  02:37      1.58    0.56    1.00
  YS02001926YS02001923 CONDUIT   1241.92     0  02:37      1.58    1.77    1.00
  YS02001929YS02001926 CONDUIT   1242.08     0  02:37      1.58    0.59    1.00
  YS02006553YS02006556 CONDUIT   1501.31     0  02:36      1.91    1.28    1.00
  YS02006556YS02006558 CONDUIT   1501.79     0  02:37      1.91    1.19    1.00
  YS02006558YS02006561 CONDUIT   1245.87     0  02:36      4.41    2.75    1.00
  YS02006561YS02001783 CONDUIT   1246.30     0  02:36      2.48    0.65    1.00
  YS02163301YS02001633 CONDUIT    800.69     0  02:09      1.02    0.75    1.00
  YS02163601YS02164001 CONDUIT   1230.51     0  01:25      1.57    1.09    1.00
  YS02164001YS02001641 CONDUIT   1226.90     0  01:25      1.56    1.68    1.00
  CC-R1                PUMP       683.00     0  01:34              1.00
  CC-R2                PUMP       683.00     0  01:39              1.00
  CC-S1                PUMP       200.00     0  00:05              1.00
  CC-S2                PUMP       200.00     0  01:31              1.00
  JK-R1                PUMP      1000.00     0  00:05              1.00
  JK-R2                PUMP      1000.00     0  00:05              1.00
  JK-S                 PUMP       300.00     0  01:55              1.00
  
  
  ***************************
  Flow Classification Summary
  ***************************
  
  -------------------------------------------------------------------------------------
                      Adjusted    ---------- Fraction of Time in Flow Class ---------- 
                       /Actual         Up    Down  Sub   Sup   Up    Down  Norm  Inlet 
  Conduit               Length    Dry  Dry   Dry   Crit  Crit  Crit  Crit  Ltd   Ctrl  
  -------------------------------------------------------------------------------------
  1                       1.00   0.00  0.00  0.00  0.00  1.00  0.00  0.00  0.22  0.00
  WS02003060WS02003069    1.00   0.00  0.00  0.00  0.98  0.02  0.00  0.00  0.63  0.00
  WS02003066WSF200        1.00   0.02  0.00  0.00  0.00  0.98  0.00  0.00  0.93  0.00
  WS02003067WS02003066    1.00   0.01  0.01  0.00  0.98  0.00  0.00  0.00  0.00  0.00
  WS02003069WS02003072    1.00   0.00  0.00  0.00  1.00  0.00  0.00  0.00  0.68  0.00
  WS02003072WS02003073    1.00   0.00  0.00  0.00  0.00  0.00  0.00  1.00  0.00  0.00
  WS02004401WS02004402    1.00   0.00  0.00  0.00  1.00  0.00  0.00  0.00  0.00  0.00
  WS02004402WS02004403    1.00   0.00  0.00  0.00  1.00  0.00  0.00  0.00  0.00  0.00
  WS02004403WS02004404    1.00   0.00  0.00  0.00  1.00  0.00  0.00  0.00  0.00  0.00
  WS02004404WS02004405    1.00   0.00  0.00  0.00  1.00  0.00  0.00  0.00  0.01  0.00
  WS02004405WS02004406    1.00   0.00  0.00  0.00  1.00  0.00  0.00  0.00  0.00  0.00
  WS02004406WS02004407    1.00   0.00  0.00  0.00  1.00  0.00  0.00  0.00  0.00  0.00
  WS02004407WS02004409    1.00   0.00  0.00  0.00  1.00  0.00  0.00  0.00  0.99  0.00
  WS02004409WS02004410    1.00   0.00  0.00  0.00  1.00  0.00  0.00  0.00  0.00  0.00
  WS02004410WS02004411    1.00   0.00  0.00  0.00  1.00  0.00  0.00  0.00  0.00  0.00
  WS02004411WS02004412    1.00   0.00  0.00  0.00  1.00  0.00  0.00  0.00  0.00  0.00
  WS02004412WS02004413    1.00   0.00  0.00  0.00  0.99  0.00  0.00  0.00  0.00  0.00
  WS02004413WS02003067    1.00   0.00  0.01  0.00  0.00  0.00  0.99  0.00  0.00  0.00
  WS02006109WS02006110    1.00   0.00  0.00  0.00  1.00  0.00  0.00  0.00  0.00  0.00
  WS02006110WS02006113    1.00   0.00  0.00  0.00  1.00  0.00  0.00  0.00  0.00  0.00
  WS02006111WS02006112    1.00   0.00  0.00  0.00  1.00  0.00  0.00  0.00  1.00  0.00
  WS02006112WS02006115    1.00   0.00  0.00  0.00  1.00  0.00  0.00  0.00  0.00  0.00
  WS02006113WS02006111    1.00   0.00  0.00  0.00  0.00  1.00  0.00  0.00  0.20  0.00
  WS02006115WS02006116    1.00   0.00  0.00  0.00  1.00  0.00  0.00  0.00  0.00  0.00
  WS02006116WS02004401    1.00   0.00  0.00  0.00  1.00  0.00  0.00  0.00  0.00  0.00
  WS02006228WS02006109    1.00   0.00  0.00  0.00  1.00  0.00  0.00  0.00  0.00  0.00
  WS02006229WS02006228    1.00   0.00  0.00  0.00  1.00  0.00  0.00  0.00  0.00  0.00
  WS02006230WS02006229    1.00   0.00  0.00  0.00  1.00  0.00  0.00  0.00  0.00  0.00
  WS02006231WS02006230    1.00   0.00  0.00  0.00  0.20  0.00  0.80  0.00  0.00  0.00
  WS02006232WS02006231    1.00   0.00  0.00  0.00  1.00  0.00  0.00  0.00  0.00  0.00
  WS02006234WS02006232    1.00   0.00  0.00  0.00  1.00  0.00  0.00  0.00  0.00  0.00
  WS02006235WS02006234    1.00   0.00  0.00  0.00  0.98  0.00  0.02  0.00  0.00  0.00
  WS02006238WS02006235    1.00   0.00  0.00  0.00  1.00  0.00  0.00  0.00  0.00  0.00
  WS02006239WS02006238    1.00   0.00  0.00  0.00  1.00  0.00  0.00  0.00  0.00  0.00
  WS02006240WS02006239    1.00   0.01  0.00  0.00  0.93  0.00  0.00  0.05  0.00  0.00
  WS02006242WS02006240    1.00   0.01  0.00  0.00  0.98  0.00  0.01  0.00  0.00  0.00
  WS02006243WS02006242    1.00   0.01  0.00  0.00  0.98  0.00  0.00  0.01  0.22  0.00
  WS02006245WS02006243    1.00   0.01  0.00  0.00  0.97  0.00  0.00  0.02  0.00  0.00
  WS02006247WS02006245    1.00   0.00  0.00  0.00  0.99  0.00  0.00  0.01  0.00  0.00
  WS02006248WS02006247    1.00   0.00  0.00  0.00  0.99  0.00  0.00  0.01  0.22  0.00
  WS02006249WS02006248    1.00   0.00  0.00  0.00  0.94  0.00  0.06  0.00  0.00  0.00
  WS02006251WS02006249    1.00   0.00  0.00  0.00  1.00  0.00  0.00  0.00  0.19  0.00
  WS02006252WS02006251    1.00   0.00  0.04  0.00  0.04  0.00  0.92  0.00  0.00  0.00
  WS02006256WS02006235    1.00   0.00  0.00  0.00  1.00  0.00  0.00  0.00  0.00  0.00
  WSF200WS02003060        1.00   0.00  0.02  0.00  0.03  0.94  0.00  0.00  0.54  0.00
  YS02001580YS02001583    1.00   0.27  0.55  0.00  0.17  0.00  0.00  0.00  0.69  0.00
  YS02001583YS02001586    1.00   0.36  0.44  0.00  0.20  0.00  0.00  0.00  0.69  0.00
  YS02001586YS02001590    1.00   0.20  0.00  0.00  0.38  0.07  0.00  0.35  0.32  0.00
  YS02001590YS02001593    1.00   0.20  0.01  0.00  0.13  0.00  0.67  0.00  0.00  0.00
  YS02001593YS02001596    1.00   0.21  0.00  0.00  0.14  0.01  0.00  0.64  0.02  0.00
  YS02001596YS02001600    1.00   0.21  0.00  0.00  0.18  0.01  0.00  0.60  0.04  0.00
  YS02001600YS02001601    1.00   0.20  0.01  0.00  0.79  0.00  0.00  0.00  0.59  0.00
  YS02001601YS02001602    1.00   0.20  0.01  0.00  0.79  0.00  0.00  0.00  0.00  0.00
  YS02001602YS02001605    1.00   0.21  0.00  0.00  0.79  0.00  0.00  0.00  0.00  0.00
  YS02001605YS02001607    1.00   0.21  0.00  0.00  0.79  0.00  0.00  0.00  0.00  0.00
  YS02001607YS02001610    1.00   0.21  0.01  0.00  0.78  0.00  0.00  0.00  0.01  0.00
  YS02001610YS02001613    1.00   0.20  0.00  0.00  0.80  0.00  0.00  0.00  0.00  0.00
  YS02001613YS02001616    1.00   0.20  0.00  0.00  0.80  0.00  0.00  0.00  0.00  0.00
  YS02001616YS02001619    1.00   0.20  0.00  0.00  0.80  0.00  0.00  0.00  0.00  0.00
  YS02001619YS02001622    1.00   0.20  0.00  0.00  0.80  0.00  0.00  0.00  0.29  0.00
  YS02001622YS02001625    1.00   0.20  0.00  0.00  0.80  0.00  0.00  0.00  0.02  0.00
  YS02001625YS02001629    1.00   0.20  0.06  0.00  0.16  0.00  0.58  0.00  0.00  0.00
  YS02001629YS02163301    1.00   0.23  0.02  0.00  0.76  0.00  0.00  0.00  0.00  0.00
  YS02001633YS02163601    1.00   0.21  0.00  0.00  0.79  0.00  0.00  0.00  0.01  0.00
  YS02001641YS02001644    1.00   0.20  0.01  0.00  0.80  0.00  0.00  0.00  0.00  0.00
  YS02001644YS02001647    1.00   0.20  0.05  0.00  0.75  0.00  0.00  0.00  0.00  0.00
  YS02001647YS02001649    1.00   0.22  0.03  0.00  0.44  0.31  0.00  0.00  0.55  0.00
  YS02001649YS02001757    1.00   0.00  0.22  0.00  0.55  0.23  0.00  0.00  0.14  0.00
  YS02001652YS02001649    1.00   0.22  0.00  0.00  0.74  0.04  0.00  0.00  0.57  0.00
  YS02001655YS02001652    1.00   0.22  0.00  0.00  0.17  0.00  0.00  0.60  0.05  0.00
  YS02001658YS02001655    1.00   0.22  0.00  0.00  0.66  0.13  0.00  0.00  0.67  0.00
  YS02001661YS02001658    1.00   0.22  0.00  0.00  0.46  0.33  0.00  0.00  0.71  0.00
  YS02001664YS02001661    1.00   0.20  0.00  0.00  0.71  0.09  0.00  0.00  0.85  0.00
  YS02001745YS02001748    1.00   0.20  0.00  0.00  0.12  0.01  0.00  0.68  0.06  0.00
  YS02001748YS02001751    1.00   0.20  0.00  0.00  0.68  0.12  0.00  0.00  0.64  0.00
  YS02001751YS02001754    1.00   0.20  0.00  0.00  0.17  0.00  0.00  0.63  0.04  0.00
  YS02001754YS02001757    1.00   0.00  0.20  0.00  0.77  0.03  0.00  0.00  0.60  0.00
  YS02001757CaochengTiaoxuchi    1.00   0.00  0.00  0.00  0.97  0.03  0.00  0.00  0.58  0.00
  YS02001759YS02001757    1.00   0.00  0.20  0.00  0.76  0.04  0.00  0.00  0.45  0.00
  YS02001762YS02001759    1.00   0.20  0.01  0.00  0.79  0.00  0.00  0.00  0.03  0.00
  YS02001765YS02001762    1.00   0.20  0.00  0.00  0.80  0.00  0.00  0.00  0.52  0.00
  YS02001767YS02001765    1.00   0.20  0.00  0.00  0.80  0.00  0.00  0.00  0.01  0.00
  YS02001770YS02001767    1.00   0.20  0.00  0.00  0.80  0.00  0.00  0.00  0.00  0.00
  YS02001774YS02001770    1.00   0.21  0.00  0.00  0.70  0.00  0.09  0.00  0.01  0.00
  YS02001779YS02001774    1.00   0.21  0.56  0.00  0.23  0.00  0.00  0.00  0.59  0.00
  YS02001783YS02001784    1.00   0.25  0.00  0.00  0.74  0.01  0.00  0.00  0.53  0.00
  YS02001784YS02001785    1.00   0.25  0.00  0.00  0.75  0.00  0.00  0.00  0.35  0.00
  YS02001786YS02001788    1.00   0.25  0.00  0.00  0.62  0.13  0.00  0.00  0.00  0.00
  YS02001788YS02001790    1.00   0.26  0.00  0.00  0.12  0.62  0.00  0.00  0.59  0.00
  YS02001790YS02001791    1.00   0.26  0.00  0.00  0.00  0.74  0.00  0.00  0.14  0.00
  YS02001791YS02001793    1.00   0.26  0.00  0.00  0.00  0.74  0.00  0.00  0.02  0.00
  YS02001793JiankangQianchi    1.00   0.00  0.26  0.00  0.68  0.06  0.00  0.00  0.80  0.00
  YS02001882YS02001884    1.00   0.23  0.00  0.00  0.77  0.00  0.00  0.00  0.00  0.00
  YS02001884YS02001887    1.00   0.21  0.01  0.00  0.79  0.00  0.00  0.00  0.00  0.00
  YS02001887YS02001890    1.00   0.20  0.00  0.00  0.78  0.00  0.02  0.00  0.00  0.00
  YS02001890YS02001895    1.00   0.20  0.03  0.00  0.77  0.00  0.00  0.00  0.00  0.00
  YS02001895YS02001898    1.00   0.23  0.00  0.00  0.74  0.00  0.02  0.00  0.00  0.00
  YS02001898YS02001901    1.00   0.23  0.00  0.00  0.76  0.01  0.00  0.00  0.00  0.00
  YS02001901YS02001904    1.00   0.24  0.01  0.00  0.76  0.00  0.00  0.00  0.00  0.00
  YS02001904YS02001907    1.00   0.20  0.04  0.00  0.76  0.00  0.00  0.00  0.00  0.00
  YS02001907YS02006553    1.00   0.20  0.02  0.00  0.79  0.00  0.00  0.00  0.00  0.00
  YS02001910YS02001907    1.00   0.20  0.00  0.00  0.78  0.00  0.00  0.02  0.01  0.00
  YS02001915YS02001910    1.00   0.20  0.00  0.00  0.76  0.04  0.00  0.00  0.01  0.00
  YS02001918YS02001915    1.00   0.20  0.04  0.00  0.76  0.00  0.00  0.00  0.64  0.00
  YS02001920YS02001918    1.00   0.21  0.02  0.00  0.77  0.00  0.00  0.00  0.00  0.00
  YS02001923YS02001920    1.00   0.21  0.00  0.00  0.78  0.00  0.00  0.00  0.70  0.00
  YS02001926YS02001923    1.00   0.20  0.02  0.00  0.09  0.00  0.70  0.00  0.00  0.00
  YS02001929YS02001926    1.00   0.20  0.00  0.00  0.80  0.00  0.00  0.00  0.75  0.00
  YS02006553YS02006556    1.00   0.21  0.00  0.00  0.79  0.00  0.00  0.00  0.00  0.00
  YS02006556YS02006558    1.00   0.20  0.01  0.00  0.80  0.00  0.00  0.00  0.00  0.00
  YS02006558YS02006561    1.00   0.25  0.00  0.00  0.08  0.66  0.00  0.00  0.14  0.00
  YS02006561YS02001783    1.00   0.25  0.00  0.00  0.14  0.61  0.00  0.00  0.62  0.00
  YS02163301YS02001633    1.00   0.20  0.03  0.00  0.77  0.00  0.00  0.00  0.00  0.00
  YS02163601YS02164001    1.00   0.21  0.01  0.00  0.78  0.00  0.00  0.00  0.01  0.00
  YS02164001YS02001641    1.00   0.20  0.02  0.00  0.78  0.00  0.00  0.00  0.00  0.00
  
  
  *************************
  Conduit Surcharge Summary
  *************************
  
  ----------------------------------------------------------------------------
                                                           Hours        Hours 
                         --------- Hours Full --------   Above Full   Capacity
  Conduit                Both Ends  Upstream  Dnstream   Normal Flow   Limited
  ----------------------------------------------------------------------------
  WS02003072WS02003073        0.01      0.01      0.01      0.69         0.01
  WS02004401WS02004402        0.01      0.01      0.01      0.01         0.01
  WS02004402WS02004403        0.01      0.01      0.01      0.02         0.01
  WS02004404WS02004405        0.01      0.01      0.01      6.14         0.01
  WS02004405WS02004406        0.01      0.01      0.01      0.23         0.01
  WS02006109WS02006110        0.30      0.30      2.38      0.38         0.01
  WS02006110WS02006113        0.01      0.01      2.34      0.01         0.01
  WS02006111WS02006112        0.01      0.01      2.55      0.01         0.01
  WS02006112WS02006115        0.01      0.01      0.32      0.01         0.01
  WS02006113WS02006111        0.01      0.01      0.01      0.01         0.01
  WS02006115WS02006116        0.01      0.01      0.01      0.01         0.01
  WS02006116WS02004401        0.01      0.01      0.01      0.02         0.01
  WS02006228WS02006109        2.31      2.37      2.32      2.64         2.31
  WS02006229WS02006228        2.30      2.33      2.30      2.51         2.29
  WS02006230WS02006229        2.42      2.49      2.43      6.21         2.42
  WS02006231WS02006230        0.32      0.32      0.41      6.08         0.01
  WS02006232WS02006231        0.38      0.38      2.37      0.41         0.01
  WS02006234WS02006232        2.25      2.25      2.37      0.41         0.40
  WS02006235WS02006234        0.54      0.54      2.30      6.03         0.01
  WS02006238WS02006235        2.31      2.31      2.38      0.01         0.01
  WS02006239WS02006238        2.34      2.37      2.34      2.47         2.25
  WS02006240WS02006239        2.31      2.33      2.31      2.47         2.18
  WS02006242WS02006240        2.33      2.33      2.42      2.53         0.01
  WS02006243WS02006242        2.35      2.35      2.40      0.01         0.02
  WS02006245WS02006243        2.34      2.35      2.34      2.13         2.05
  WS02006247WS02006245        2.34      2.36      2.34      6.00         2.33
  WS02006248WS02006247        2.34      2.34      2.35      0.01         0.02
  WS02006249WS02006248        2.33      2.33      2.35      5.98         0.01
  WS02006251WS02006249        2.35      2.35      2.35      2.46         2.31
  WS02006252WS02006251        2.48      2.48      2.52      2.48         0.01
  WS02006256WS02006235        6.04      6.05      7.84      0.41         0.01
  YS02001580YS02001583        0.82      0.82      0.89      0.01         0.01
  YS02001583YS02001586        0.83      0.83      1.02      0.01         0.01
  YS02001586YS02001590        1.02      1.02      1.10      0.01         0.01
  YS02001590YS02001593        1.10      1.10      1.12      1.19         0.01
  YS02001593YS02001596        1.11      1.11      1.21      0.01         0.01
  YS02001596YS02001600        1.26      1.26      1.38      0.01         0.01
  YS02001600YS02001601        1.45      1.45      1.75      0.01         0.01
  YS02001601YS02001602        1.68      1.68      1.78      1.38         0.01
  YS02001602YS02001605        1.61      1.61      1.68      2.35         0.01
  YS02001605YS02001607        1.56      1.61      1.56      1.72         1.56
  YS02001607YS02001610        1.09      1.09      1.13      0.01         0.01
  YS02001610YS02001613        1.09      1.09      1.13      0.01         0.01
  YS02001613YS02001616        1.05      1.05      1.09      0.01         0.01
  YS02001616YS02001619        1.03      1.03      1.05      0.01         0.01
  YS02001619YS02001622        1.03      1.03      1.03      1.07         0.96
  YS02001622YS02001625        1.03      1.03      1.23      0.01         0.01
  YS02001625YS02001629        0.98      0.98      1.23      0.01         0.01
  YS02001629YS02163301        1.23      1.23      1.24      0.01         0.13
  YS02001633YS02163601        1.26      1.26      1.30      0.35         0.31
  YS02001641YS02001644        1.20      1.23      1.20      1.79         1.19
  YS02001644YS02001647        0.99      0.99      1.20      0.02         0.01
  YS02001647YS02001649        0.99      0.99      1.16      0.01         0.01
  YS02001649YS02001757        1.16      1.16      1.25      0.03         0.04
  YS02001652YS02001649        0.95      0.95      1.16      0.01         0.01
  YS02001655YS02001652        0.65      0.65      0.92      0.01         0.01
  YS02001658YS02001655        0.31      0.31      0.66      0.01         0.01
  YS02001661YS02001658        0.04      0.04      0.31      0.01         0.01
  YS02001664YS02001661        0.01      0.01      0.11      0.01         0.01
  YS02001745YS02001748        0.01      0.01      0.22      0.01         0.01
  YS02001748YS02001751        0.27      0.27      0.45      0.01         0.01
  YS02001751YS02001754        0.45      0.45      0.79      0.01         0.01
  YS02001754YS02001757        0.86      0.86      1.25      0.01         0.01
  YS02001757CaochengTiaoxuchi        1.15      1.25      2.41      0.45         0.34
  YS02001759YS02001757        1.14      1.14      1.25      0.05         0.05
  YS02001762YS02001759        1.10      1.10      1.14      0.01         0.01
  YS02001765YS02001762        1.04      1.04      1.10      0.01         0.01
  YS02001767YS02001765        1.00      1.00      1.04      0.01         0.01
  YS02001770YS02001767        0.99      0.99      1.00      0.67         0.68
  YS02001774YS02001770        0.96      0.96      1.08      0.01         0.01
  YS02001779YS02001774        0.76      0.76      1.08      0.01         0.01
  YS02001783YS02001784        1.09      1.12      1.09      1.37         1.09
  YS02001784YS02001785        0.92      1.09      0.92      1.64         0.92
  YS02001786YS02001788        0.01      0.92      0.01      1.54         0.01
  YS02001790YS02001791        0.01      0.01      0.01      1.06         0.01
  YS02001793JiankangQianchi        0.01      0.01      6.67      0.01         0.01
  YS02001882YS02001884        1.04      1.04      1.06      0.01         0.01
  YS02001884YS02001887        1.09      1.09      1.11      0.01         0.01
  YS02001887YS02001890        1.13      1.13      1.14      0.39         0.01
  YS02001890YS02001895        1.02      1.02      1.17      0.01         0.01
  YS02001895YS02001898        1.02      1.02      1.02      0.01         0.01
  YS02001898YS02001901        1.03      1.03      1.09      0.01         0.01
  YS02001901YS02001904        1.08      1.08      1.09      0.01         0.01
  YS02001904YS02001907        1.08      1.08      1.53      0.01         0.01
  YS02001907YS02006553        1.65      1.65      1.70      0.10         0.10
  YS02001910YS02001907        1.17      1.17      1.51      0.26         0.26
  YS02001915YS02001910        1.04      1.04      1.17      0.01         0.01
  YS02001918YS02001915        0.90      0.90      1.04      0.01         0.01
  YS02001920YS02001918        0.90      0.90      0.92      0.08         0.01
  YS02001923YS02001920        0.85      0.85      0.92      0.01         0.01
  YS02001926YS02001923        0.41      0.41      0.44      0.21         0.01
  YS02001929YS02001926        0.28      0.28      0.44      0.01         0.01
  YS02006553YS02006556        1.31      1.31      1.53      0.06         0.06
  YS02006556YS02006558        1.44      1.44      1.54      0.04         0.01
  YS02006558YS02006561        0.95      1.28      0.95      1.61         0.95
  YS02006561YS02001783        0.86      0.86      1.12      0.01         0.01
  YS02163301YS02001633        1.24      1.24      1.28      0.01         0.01
  YS02163601YS02164001        1.23      1.23      1.30      0.01         0.01
  YS02164001YS02001641        1.23      1.23      1.23      0.86         0.82
  
  
  ***************
  Pumping Summary
  ***************
  
  ---------------------------------------------------------------------------------------------------------
                                                  Min       Avg       Max     Total     Power    % Time Off
                        Percent   Number of      Flow      Flow      Flow    Volume     Usage    Pump Curve
  Pump                 Utilized   Start-Ups       LPS       LPS       LPS  10^6 ltr     Kw-hr    Low   High
  ---------------------------------------------------------------------------------------------------------
  CC-R1                   20.96           1      0.00    683.00    683.00     4.123     79.03    0.0    0.0
  CC-R2                   15.82           1      0.00    683.00    683.00     3.113     60.35    0.0    0.0
  CC-S1                   75.95          24      0.00    200.00    200.00     4.375     26.27    0.0    0.0
  CC-S2                   31.00           1      0.00    200.00    200.00     1.785      9.45    0.0    0.0
  JK-R1                   11.53          55      0.00   1000.00   1000.00     3.320     29.98    0.0    0.0
  JK-R2                    9.68          55      0.00   1000.00   1000.00     2.788     23.50    0.0    0.0
  JK-S                     5.17           5      0.00    300.00    300.00     0.447      6.73    0.0    0.0
  

  Analysis begun on:  Fri Sep  8 22:11:27 2023
  Analysis ended on:  Fri Sep  8 22:11:41 2023
  Total elapsed time: 00:00:14