
  OWA STORM WATER MANAGEMENT MODEL - VERSION v5.2.3 (OWA 2023-06-06)
  ------------------------------------------------------------

  WARNING 04: minimum elevation drop used for Conduit WS02004404WS02004405
  WARNING 03: negative offset ignored for Link YS02001904YS02001907
  
  ****************
  Analysis Options
  ****************
  Flow Units ............... LPS
  Process Models:
    Rainfall/Runoff ........ YES
    RDII ................... NO
    Snowmelt ............... NO
    Groundwater ............ NO
    Flow Routing ........... YES
    Ponding Allowed ........ NO
    Water Quality .......... NO
  Infiltration Method ...... HORTON
  Flow Routing Method ...... DYNWAVE
  Surcharge Method ......... EXTRAN
  Starting Date ............ 08/28/2015 08:00:00
  Ending Date .............. 08/28/2015 16:00:00
  Antecedent Dry Days ...... 8.0
  Report Time Step ......... 00:01:00
  Wet Time Step ............ 00:01:00
  Dry Time Step ............ 00:01:00
  Routing Time Step ........ 30.00 sec
  Variable Time Step ....... YES
  Maximum Trials ........... 8
  Number of Threads ........ 2
  Head Tolerance ........... 0.001500 m
  
  
  **************************        Volume         Depth
  Runoff Quantity Continuity     hectare-m            mm
  **************************     ---------       -------
  Total Precipitation ......         2.992        90.205
  Evaporation Loss .........         0.000         0.000
  Infiltration Loss ........         0.105         3.155
  Surface Runoff ...........         2.855        86.068
  Final Storage ............         0.033         0.997
  Continuity Error (%) .....        -0.017
  
  
  **************************        Volume        Volume
  Flow Routing Continuity        hectare-m      10^6 ltr
  **************************     ---------     ---------
  Dry Weather Inflow .......         0.025         0.251
  Wet Weather Inflow .......         2.854        28.540
  Groundwater Inflow .......         0.000         0.000
  RDII Inflow ..............         0.000         0.000
  External Inflow ..........         0.083         0.834
  External Outflow .........         2.353        23.533
  Flooding Loss ............         0.706         7.064
  Evaporation Loss .........         0.000         0.000
  Exfiltration Loss ........         0.000         0.000
  Initial Stored Volume ....         0.243         2.431
  Final Stored Volume ......         0.182         1.819
  Continuity Error (%) .....        -1.125
  
  
  *************************
  Highest Continuity Errors
  *************************
  Node YS02001884 (5.02%)
  Node YS02001583 (-3.87%)
  Node WS02006256 (-2.07%)
  Node YS02001774 (1.36%)
  Node YS02001748 (-1.26%)
  
  
  ***************************
  Time-Step Critical Elements
  ***************************
  Link WS02006238WS02006235 (20.27%)
  Link YS02001791YS02001793 (14.60%)
  Link WS02006252WS02006251 (14.30%)
  Link WS02004404WS02004405 (13.30%)
  Link WS02006235WS02006234 (8.73%)
  
  
  ********************************
  Highest Flow Instability Indexes
  ********************************
  Link WS02006113WS02006111 (46)
  Link YS02001602YS02001605 (32)
  Link WS02006238WS02006235 (32)
  Link WS02006252WS02006251 (31)
  Link YS02001605YS02001607 (28)
  
  
  *********************************
  Most Frequent Nonconverging Nodes
  *********************************
  Node CC-1 (33.98%)
  Node CC-2 (33.98%)
  Node JK-1 (33.98%)
  Node JK-2 (33.98%)
  Node WSC (33.98%)
  
  
  *************************
  Routing Time Step Summary
  *************************
  Minimum Time Step           :     0.01 sec
  Average Time Step           :     2.53 sec
  Maximum Time Step           :    30.00 sec
  % of Time in Steady State   :     0.00
  Average Iterations per Step :     4.45
  % of Steps Not Converging   :    33.98
  Time Step Frequencies       :
     30.000 - 13.228 sec      :     0.01 %
     13.228 -  5.833 sec      :    10.12 %
      5.833 -  2.572 sec      :    24.94 %
      2.572 -  1.134 sec      :    40.89 %
      1.134 -  0.500 sec      :    24.03 %
  
  
  ***************************
  Subcatchment Runoff Summary
  ***************************
  
  ------------------------------------------------------------------------------------------------------------------------------
                            Total      Total      Total      Total     Imperv       Perv      Total       Total     Peak  Runoff
                           Precip      Runon       Evap      Infil     Runoff     Runoff     Runoff      Runoff   Runoff   Coeff
  Subcatchment                 mm         mm         mm         mm         mm         mm         mm    10^6 ltr      LPS
  ------------------------------------------------------------------------------------------------------------------------------
  sub60                     90.21       0.00       0.00       1.91      78.18       8.91      87.10        1.14   272.68   0.966
  sub61                     90.21       0.00       0.00       2.77      73.74      12.56      86.31        1.58   378.59   0.957
  sub62                     90.21       0.00       0.00       1.27      81.70       5.94      87.65        2.40   567.68   0.972
  sub63                     90.21       0.00       0.00       5.10      63.08      21.06      84.14        1.91   451.60   0.933
  sub64                     90.21       0.00       0.00       2.58      75.47      10.95      86.42        2.08   488.38   0.958
  sub65                     90.21       0.00       0.00       2.23      77.22       9.49      86.72        2.39   559.01   0.961
  sub66                     90.21       0.00       0.00       6.21      62.97      19.95      82.91        3.87   826.99   0.919
  sub67                     90.21       0.00       0.00       1.22      81.75       6.00      87.75        1.63   388.00   0.973
  sub68                     90.21       0.00       0.00       2.30      76.39      10.33      86.73        2.39   567.83   0.961
  sub69                     90.21       0.00       0.00       2.07      76.56      11.46      88.02        3.26   750.47   0.976
  sub70                     90.21       0.00       0.00       6.72      59.37      23.95      83.32        2.41   484.55   0.924
  sub71                     90.21       0.00       0.00       1.31      81.66       5.91      87.57        2.29   535.92   0.971
  sub72                     90.21       0.00       0.00       1.16      82.48       5.15      87.64        1.20   276.73   0.972
  
  
  ******************
  Node Depth Summary
  ******************
  
  ---------------------------------------------------------------------------------
                                 Average  Maximum  Maximum  Time of Max    Reported
                                   Depth    Depth      HGL   Occurrence   Max Depth
  Node                 Type       Meters   Meters   Meters  days hr:min      Meters
  ---------------------------------------------------------------------------------
  WS02003060           JUNCTION     0.24     0.38     5.31     0  02:18        0.38
  WS02003066           JUNCTION     0.20     0.30     5.85     0  02:18        0.30
  WS02003067           JUNCTION     0.52     0.70     6.02     0  02:17        0.70
  WS02003069           JUNCTION     0.27     0.43     5.01     0  02:19        0.43
  WS02003072           JUNCTION     0.33     0.50     4.87     0  02:19        0.50
  WS02003073           JUNCTION     0.19     0.30     4.36     0  02:20        0.30
  WS02004401           JUNCTION     0.61     0.85     6.85     0  02:05        0.85
  WS02004402           JUNCTION     0.65     0.88     6.84     0  02:59        0.88
  WS02004403           JUNCTION     0.67     0.89     6.82     0  02:06        0.89
  WS02004404           JUNCTION     0.75     0.96     6.81     0  02:16        0.96
  WS02004405           JUNCTION     0.74     0.95     6.80     0  02:59        0.95
  WS02004406           JUNCTION     0.75     0.96     6.79     0  02:59        0.96
  WS02004407           JUNCTION     0.18     0.30     6.61     0  03:00        0.30
  WS02004409           JUNCTION     0.41     0.67     6.44     0  02:16        0.67
  WS02004410           JUNCTION     0.44     0.68     6.40     0  02:16        0.68
  WS02004411           JUNCTION     0.46     0.69     6.37     0  02:17        0.69
  WS02004412           JUNCTION     0.48     0.70     6.34     0  02:17        0.70
  WS02004413           JUNCTION     0.64     0.86     6.33     0  02:17        0.86
  WS02006109           JUNCTION     0.67     1.65     8.27     0  03:06        1.60
  WS02006110           JUNCTION     0.67     1.98     8.57     0  03:06        1.67
  WS02006111           JUNCTION     0.18     0.90     7.60     0  00:00        0.40
  WS02006112           JUNCTION     0.77     2.68     8.56     0  00:00        1.14
  WS02006113           JUNCTION     0.28     1.40     8.29     0  00:00        0.45
  WS02006115           JUNCTION     0.49     1.65     7.79     0  00:00        0.86
  WS02006116           JUNCTION     0.58     1.06     7.10     0  00:00        0.83
  WS02006228           JUNCTION     0.67     1.54     8.19     0  03:06        1.33
  WS02006229           JUNCTION     0.64     1.39     8.08     0  03:06        1.19
  WS02006230           JUNCTION     0.65     1.50     8.25     0  03:05        1.15
  WS02006231           JUNCTION     0.45     1.27     8.40     0  03:05        0.92
  WS02006232           JUNCTION     0.59     1.45     8.49     0  03:05        1.45
  WS02006234           JUNCTION     0.52     1.96     9.12     0  02:24        1.96
  WS02006235           JUNCTION     0.56     2.00     9.16     0  02:24        2.00
  WS02006238           JUNCTION     0.59     2.15     9.29     0  02:24        2.15
  WS02006239           JUNCTION     0.56     2.03     9.24     0  02:24        2.03
  WS02006240           JUNCTION     0.54     2.10     9.39     0  02:24        2.10
  WS02006242           JUNCTION     0.61     1.55     8.82     0  02:24        1.55
  WS02006243           JUNCTION     0.53     1.48     8.90     0  02:24        1.48
  WS02006245           JUNCTION     0.53     1.56     9.05     0  02:24        1.56
  WS02006247           JUNCTION     0.55     1.47     8.97     0  02:24        1.47
  WS02006248           JUNCTION     0.52     1.10     8.69     0  01:45        1.10
  WS02006249           JUNCTION     0.55     1.09     8.69     0  01:28        1.09
  WS02006251           JUNCTION     0.55     1.46     9.13     0  03:05        1.39
  WS02006252           JUNCTION     0.37     1.50     9.74     0  00:15        0.93
  WS02006256           JUNCTION     1.08     2.35     9.28     0  00:09        2.35
  WSF200               JUNCTION     0.17     0.29     5.52     0  02:18        0.29
  YS02001580           JUNCTION     0.22     1.05     9.59     0  01:13        0.77
  YS02001583           JUNCTION     0.25     1.14     9.64     0  01:13        0.83
  YS02001586           JUNCTION     0.38     1.13     9.30     0  01:13        1.13
  YS02001590           JUNCTION     0.50     1.40     9.26     0  01:24        1.40
  YS02001593           JUNCTION     0.44     1.32     9.19     0  01:24        1.29
  YS02001596           JUNCTION     0.59     1.68     9.09     0  01:24        1.66
  YS02001600           JUNCTION     0.68     1.87     9.00     0  01:24        1.86
  YS02001601           JUNCTION     0.86     2.06     8.90     0  01:12        2.06
  YS02001602           JUNCTION     0.76     1.87     8.77     0  01:13        1.87
  YS02001605           JUNCTION     0.71     1.78     8.68     0  01:35        1.78
  YS02001607           JUNCTION     0.67     1.68     8.53     0  01:24        1.68
  YS02001610           JUNCTION     0.71     1.68     8.48     0  01:13        1.68
  YS02001613           JUNCTION     0.67     1.67     8.51     0  01:24        1.65
  YS02001616           JUNCTION     0.61     1.61     8.52     0  01:24        1.61
  YS02001619           JUNCTION     0.59     1.60     8.53     0  01:24        1.56
  YS02001622           JUNCTION     0.58     1.62     8.52     0  01:24        1.62
  YS02001625           JUNCTION     0.82     1.78     8.38     0  01:13        1.78
  YS02001629           JUNCTION     0.73     1.85     8.40     0  01:13        1.85
  YS02001633           JUNCTION     0.80     2.08     8.53     0  01:24        2.08
  YS02001641           JUNCTION     0.76     2.10     8.54     0  01:24        2.10
  YS02001644           JUNCTION     0.75     1.92     8.35     0  01:24        1.92
  YS02001647           JUNCTION     0.55     1.90     8.51     0  01:24        1.90
  YS02001649           JUNCTION     0.62     2.05     8.44     0  01:24        2.05
  YS02001652           JUNCTION     0.50     2.16     8.76     0  01:24        2.16
  YS02001655           JUNCTION     0.40     1.73     8.58     0  01:24        1.36
  YS02001658           JUNCTION     0.29     1.73     8.87     0  01:24        1.06
  YS02001661           JUNCTION     0.23     0.80     8.20     0  01:35        0.79
  YS02001664           JUNCTION     0.08     0.25     8.18     0  01:33        0.25
  YS02001745           JUNCTION     0.13     0.66     8.17     0  01:48        0.64
  YS02001748           JUNCTION     0.28     1.37     8.44     0  01:49        1.07
  YS02001751           JUNCTION     0.35     2.20     9.08     0  02:15        1.26
  YS02001754           JUNCTION     0.46     2.09     8.70     0  02:15        1.54
  YS02001757           JUNCTION     0.65     2.21     8.47     0  01:24        2.21
  YS02001759           JUNCTION     0.59     2.21     8.57     0  01:24        2.21
  YS02001762           JUNCTION     0.58     2.15     8.55     0  01:24        2.15
  YS02001765           JUNCTION     0.55     2.10     8.55     0  01:24        2.10
  YS02001767           JUNCTION     0.54     2.03     8.52     0  01:24        2.03
  YS02001770           JUNCTION     0.55     1.95     8.45     0  01:24        1.95
  YS02001774           JUNCTION     0.61     2.05     8.47     0  01:24        2.05
  YS02001779           JUNCTION     0.44     1.68     8.37     0  01:18        1.63
  YS02001783           JUNCTION     0.38     1.27     7.41     0  01:17        1.27
  YS02001784           JUNCTION     0.38     1.20     7.27     0  01:24        1.20
  YS02001786           JUNCTION     0.31     0.90     6.93     0  01:17        0.88
  YS02001788           JUNCTION     0.23     0.62     6.59     0  01:29        0.62
  YS02001790           JUNCTION     0.26     0.72     6.37     0  01:30        0.72
  YS02001791           JUNCTION     0.16     0.44     5.91     0  01:25        0.43
  YS02001793           JUNCTION     0.08     0.30     5.13     0  01:45        0.28
  YS02001882           JUNCTION     0.47     1.67     8.38     0  01:17        1.60
  YS02001884           JUNCTION     0.55     1.76     8.37     0  01:17        1.70
  YS02001887           JUNCTION     0.63     1.82     8.36     0  01:17        1.78
  YS02001890           JUNCTION     0.66     1.81     8.32     0  01:16        1.81
  YS02001895           JUNCTION     0.44     1.58     8.33     0  01:16        1.55
  YS02001898           JUNCTION     0.45     1.77     8.50     0  01:24        1.77
  YS02001901           JUNCTION     0.55     1.69     8.30     0  01:24        1.67
  YS02001904           JUNCTION     0.54     1.65     8.28     0  01:24        1.64
  YS02001907           JUNCTION     0.84     1.96     8.25     0  01:17        1.96
  YS02001910           JUNCTION     0.65     1.96     8.47     0  01:17        1.82
  YS02001915           JUNCTION     0.48     1.92     8.63     0  01:24        1.92
  YS02001918           JUNCTION     0.30     1.81     8.88     0  01:17        1.41
  YS02001920           JUNCTION     0.38     2.14     9.15     0  01:17        1.51
  YS02001923           JUNCTION     0.23     2.03     9.29     0  01:17        1.29
  YS02001926           JUNCTION     0.24     1.90     9.35     0  01:17        1.13
  YS02001929           JUNCTION     0.15     1.78     9.47     0  01:17        0.90
  YS02006553           JUNCTION     0.84     1.98     8.27     0  01:24        1.98
  YS02006556           JUNCTION     0.81     1.95     8.26     0  01:17        1.95
  YS02006558           JUNCTION     0.85     1.99     8.26     0  01:17        1.99
  YS02006561           JUNCTION     0.24     0.94     7.60     0  01:16        0.93
  YS02163301           JUNCTION     0.75     2.03     8.55     0  01:24        2.03
  YS02163601           JUNCTION     0.83     2.08     8.48     0  01:24        2.08
  YS02164001           JUNCTION     0.76     2.10     8.56     0  01:24        2.10
  CC-1                 OUTFALL      0.00     0.00     0.00     0  00:00        0.00
  CC-2                 OUTFALL      0.00     0.00     0.00     0  00:00        0.00
  JK-1                 OUTFALL      0.00     0.00     0.00     0  00:00        0.00
  JK-2                 OUTFALL      0.00     0.00     0.00     0  00:00        0.00
  WSC                  OUTFALL      0.19     0.30     0.97     0  02:20        0.30
  CC-storage           STORAGE      1.02     1.92     7.42     0  02:29        1.92
  JK-storage           STORAGE      1.68     4.21     5.01     0  01:44        4.20
  
  
  *******************
  Node Inflow Summary
  *******************
  
  -------------------------------------------------------------------------------------------------
                                  Maximum  Maximum                  Lateral       Total        Flow
                                  Lateral    Total  Time of Max      Inflow      Inflow     Balance
                                   Inflow   Inflow   Occurrence      Volume      Volume       Error
  Node                 Type           LPS      LPS  days hr:min    10^6 ltr    10^6 ltr     Percent
  -------------------------------------------------------------------------------------------------
  WS02003060           JUNCTION     16.53   550.97     0  02:18       0.476        6.06       0.042
  WS02003066           JUNCTION      0.00   534.31     0  02:18           0        5.59       0.026
  WS02003067           JUNCTION      0.00   534.29     0  02:17           0        5.59       0.076
  WS02003069           JUNCTION      0.32   551.16     0  02:18     0.00922        6.07       0.069
  WS02003072           JUNCTION      0.00   550.92     0  02:19           0        6.07       0.119
  WS02003073           JUNCTION      1.82   552.53     0  02:19      0.0524        6.11       0.096
  WS02004401           JUNCTION      0.00  1677.78     0  00:00           0        5.71       0.204
  WS02004402           JUNCTION      0.00  1171.33     0  00:01           0        5.69       0.200
  WS02004403           JUNCTION      0.00   884.75     0  00:01           0        5.68       0.194
  WS02004404           JUNCTION      0.16   832.59     0  00:01     0.00467        5.67       0.161
  WS02004405           JUNCTION      0.04   776.49     0  00:01      0.0011        5.66       0.224
  WS02004406           JUNCTION      0.00   711.76     0  00:02           0        5.65       0.389
  WS02004407           JUNCTION      0.00   535.94     0  03:00           0        5.63       0.022
  WS02004409           JUNCTION      0.00   535.76     0  03:00           0        5.63       0.053
  WS02004410           JUNCTION      0.00   535.14     0  02:16           0        5.63       0.084
  WS02004411           JUNCTION      0.00   534.94     0  02:16           0        5.62       0.107
  WS02004412           JUNCTION      0.00   534.65     0  02:17           0        5.62       0.138
  WS02004413           JUNCTION      0.00   534.55     0  02:17           0        5.61       0.250
  WS02006109           JUNCTION      1.23  1308.01     0  00:00      0.0354        5.64       0.121
  WS02006110           JUNCTION      0.00   561.90     0  02:50           0        5.61      -0.642
  WS02006111           JUNCTION      0.00  1176.04     0  00:00           0        5.64      -0.687
  WS02006112           JUNCTION      0.00  2307.30     0  00:00           0        5.68      -0.012
  WS02006113           JUNCTION      0.00   579.52     0  02:51           0         5.6      -0.877
  WS02006115           JUNCTION      0.00   899.27     0  00:00           0        5.65      -0.567
  WS02006116           JUNCTION      0.00  1098.16     0  00:01           0        5.68      -0.407
  WS02006228           JUNCTION      0.00   559.15     0  03:05           0        5.58       0.072
  WS02006229           JUNCTION      0.00   558.48     0  03:05           0        5.57       0.172
  WS02006230           JUNCTION     10.28   587.73     0  02:50       0.296        5.55       0.016
  WS02006231           JUNCTION      0.00   612.88     0  02:24           0        5.24      -0.047
  WS02006232           JUNCTION      0.00   608.27     0  02:24           0        5.25       0.196
  WS02006234           JUNCTION      0.00   593.74     0  02:24           0        5.23      -0.280
  WS02006235           JUNCTION      0.00   573.14     0  02:24           0        5.35       0.238
  WS02006238           JUNCTION      0.00   424.53     0  01:30           0        4.33      -0.166
  WS02006239           JUNCTION      0.00   423.74     0  01:30           0        4.25      -0.110
  WS02006240           JUNCTION      0.00   421.18     0  03:51           0        4.21       0.001
  WS02006242           JUNCTION      0.00   421.25     0  03:51           0        4.19       0.048
  WS02006243           JUNCTION      0.00   422.09     0  03:46           0        4.18      -0.114
  WS02006245           JUNCTION      0.00   423.48     0  03:51           0        4.19       0.228
  WS02006247           JUNCTION      0.00   423.60     0  03:51           0        4.19      -0.030
  WS02006248           JUNCTION      0.00   424.87     0  03:51           0        4.19       0.003
  WS02006249           JUNCTION      0.00   824.67     0  00:05           0        4.47       0.259
  WS02006251           JUNCTION      0.08   460.09     0  00:05     0.00222        4.46      -0.368
  WS02006252           JUNCTION      0.00   400.00     0  00:05           0        4.44      -0.291
  WS02006256           JUNCTION      0.00   300.00     0  00:30           0        1.55      -2.032
  WSF200               JUNCTION      0.00   534.35     0  02:18           0        5.59       0.009
  YS02001580           JUNCTION      0.00   115.53     0  01:13           0     0.00491      -5.478
  YS02001583           JUNCTION      0.00   158.42     0  01:12           0      0.0163      -3.724
  YS02001586           JUNCTION    484.55   484.75     0  01:36        2.41        2.42       0.072
  YS02001590           JUNCTION      0.00   323.32     0  01:24           0        2.07      -0.038
  YS02001593           JUNCTION      0.00   323.79     0  01:24           0        2.07       0.011
  YS02001596           JUNCTION      0.00   317.99     0  02:05           0        2.07      -0.021
  YS02001600           JUNCTION      0.00   318.29     0  01:24           0        2.07       0.023
  YS02001601           JUNCTION    750.47  1068.07     0  01:33        3.26        5.33       0.014
  YS02001602           JUNCTION      0.00   581.51     0  01:12           0        3.23       0.017
  YS02001605           JUNCTION      0.00   581.00     0  01:12           0        2.95       0.017
  YS02001607           JUNCTION      0.00   581.15     0  01:13           0        2.95       0.055
  YS02001610           JUNCTION      0.00   554.29     0  01:12           0        2.95       0.082
  YS02001613           JUNCTION      0.00   552.70     0  01:13           0        2.17       0.085
  YS02001616           JUNCTION      0.00   556.84     0  01:13           0        2.18       0.022
  YS02001619           JUNCTION    826.99   928.41     0  01:13        3.87        6.04      -0.004
  YS02001622           JUNCTION      0.00   934.06     0  01:13           0        6.03      -0.010
  YS02001625           JUNCTION      0.00   939.26     0  01:13           0        6.03       0.194
  YS02001629           JUNCTION      0.00   940.20     0  01:13           0        4.31      -0.026
  YS02001633           JUNCTION    559.21  1344.96     0  01:16        2.39        6.71       0.047
  YS02001641           JUNCTION      0.00  1346.37     0  01:16           0        6.72       0.044
  YS02001644           JUNCTION    488.42  1746.28     0  01:16        2.08        8.78       0.037
  YS02001647           JUNCTION      0.00  1746.41     0  01:16           0        8.76       0.001
  YS02001649           JUNCTION      0.00  2066.37     0  01:15           0        10.7       0.002
  YS02001652           JUNCTION      0.00   486.16     0  01:24           0        1.93      -0.132
  YS02001655           JUNCTION      0.15   557.70     0  01:24     0.00443        1.93      -0.057
  YS02001658           JUNCTION      0.00   809.61     0  01:24           0        1.96      -0.772
  YS02001661           JUNCTION      0.00   451.60     0  01:33           0        1.96       0.063
  YS02001664           JUNCTION    451.60   451.60     0  01:33        1.91        1.91      -0.014
  YS02001745           JUNCTION    272.69   364.93     0  01:46        1.14        1.22       0.233
  YS02001748           JUNCTION      0.04   591.76     0  01:32      0.0013        1.22      -1.244
  YS02001751           JUNCTION      0.01   407.49     0  01:20    0.000317        1.16      -0.255
  YS02001754           JUNCTION      0.26   314.83     0  01:32     0.00749        1.17      -0.090
  YS02001757           JUNCTION      0.00  3035.73     0  01:22           0        15.9       0.037
  YS02001759           JUNCTION    378.63  1002.05     0  01:24        1.58        4.01      -0.017
  YS02001762           JUNCTION      0.00   626.04     0  01:24           0        2.42      -0.005
  YS02001765           JUNCTION      0.00   619.68     0  01:24           0        2.42       0.007
  YS02001767           JUNCTION      0.54   612.30     0  01:24      0.0154        2.42       0.002
  YS02001770           JUNCTION    567.83   588.27     0  01:18        2.41        2.46      -0.017
  YS02001774           JUNCTION      0.00   154.53     0  01:17           0      0.0876       1.381
  YS02001779           JUNCTION      0.01   149.40     0  01:17    0.000144      0.0288      -0.457
  YS02001783           JUNCTION      0.00  1148.58     0  01:28           0        6.52       0.006
  YS02001784           JUNCTION      1.06  1149.57     0  01:28      0.0305        6.55       0.007
  YS02001786           JUNCTION      0.06  1149.28     0  01:28     0.00162        6.55       0.011
  YS02001788           JUNCTION      0.07  1149.45     0  01:28     0.00204        6.55       0.006
  YS02001790           JUNCTION      0.15  1163.86     0  01:28     0.00446        6.56       0.015
  YS02001791           JUNCTION      0.00  1282.34     0  01:30           0        6.55      -0.026
  YS02001793           JUNCTION      0.00  1235.65     0  01:34           0        6.56       0.006
  YS02001882           JUNCTION      0.00    72.99     0  01:14           0      0.0153       5.520
  YS02001884           JUNCTION      0.00   133.14     0  01:11           0      0.0525       5.283
  YS02001887           JUNCTION    388.45   389.31     0  01:30        1.64        1.68       0.249
  YS02001890           JUNCTION      0.00   390.44     0  01:30           0        1.64       0.322
  YS02001895           JUNCTION      0.00   389.48     0  01:31           0        1.63       0.177
  YS02001898           JUNCTION      0.00   391.83     0  01:15           0        1.63      -0.029
  YS02001901           JUNCTION      0.00   402.36     0  01:15           0        1.64       0.215
  YS02001904           JUNCTION      0.00   403.36     0  01:15           0        1.65       0.168
  YS02001907           JUNCTION      0.00  1272.43     0  01:18           0        5.23       0.343
  YS02001910           JUNCTION      0.00   888.76     0  01:18           0        3.58       0.206
  YS02001915           JUNCTION    535.94   888.72     0  01:18        2.29        3.61       0.042
  YS02001918           JUNCTION      0.00   428.05     0  01:18           0        1.34       0.013
  YS02001920           JUNCTION      2.87   427.91     0  01:18      0.0827        1.33       0.075
  YS02001923           JUNCTION      0.04   364.86     0  01:18     0.00109        1.23      -0.019
  YS02001926           JUNCTION      0.05   406.06     0  01:17      0.0015        1.21      -0.054
  YS02001929           JUNCTION    276.73   278.66     0  01:17         1.2        1.21      -0.023
  YS02006553           JUNCTION      0.00   783.82     0  02:01           0        4.18       0.284
  YS02006556           JUNCTION      0.00   783.24     0  02:00           0         4.2       0.190
  YS02006558           JUNCTION    568.71  1151.12     0  01:16        2.41        6.57       0.060
  YS02006561           JUNCTION      0.00  1150.91     0  01:24           0        6.52      -0.007
  YS02163301           JUNCTION      0.00   909.63     0  01:16           0        4.32       0.037
  YS02163601           JUNCTION      0.11  1344.35     0  01:16     0.00317         6.7       0.072
  YS02164001           JUNCTION      0.00  1344.47     0  01:16           0         6.7       0.035
  CC-1                 OUTFALL       0.00   683.00     0  00:05           0        6.63       0.000
  CC-2                 OUTFALL       0.00   683.00     0  01:15           0        5.66       0.000
  JK-1                 OUTFALL       0.00  1000.00     0  00:05           0        2.92       0.000
  JK-2                 OUTFALL       0.00  1000.00     0  01:15           0        2.22       0.000
  WSC                  OUTFALL       0.00   552.22     0  02:20           0        6.11       0.000
  CC-storage           STORAGE       0.00  3036.50     0  01:22           0        18.1      -0.180
  JK-storage           STORAGE       0.00  1283.04     0  01:55           0        6.71      -0.251
  
  
  **********************
  Node Surcharge Summary
  **********************
  
  Surcharging occurs when water rises above the top of the highest conduit.
  ---------------------------------------------------------------------
                                               Max. Height   Min. Depth
                                   Hours       Above Crown    Below Rim
  Node                 Type      Surcharged         Meters       Meters
  ---------------------------------------------------------------------
  WS02006109           JUNCTION        2.56          0.831        0.989
  WS02006110           JUNCTION        0.93          1.071        0.779
  WS02006111           JUNCTION        0.01          0.087        1.783
  WS02006112           JUNCTION        0.98          1.680        0.000
  WS02006113           JUNCTION        0.01          0.600        1.330
  WS02006115           JUNCTION        0.01          0.642        1.608
  WS02006116           JUNCTION        0.01          0.000        2.290
  WS02006228           JUNCTION        2.56          0.708        1.492
  WS02006229           JUNCTION        2.57          0.588        1.862
  WS02006230           JUNCTION        0.96          0.423        1.147
  WS02006231           JUNCTION        1.10          0.564        0.966
  WS02006232           JUNCTION        2.65          0.755        0.725
  WS02006234           JUNCTION        1.60          1.240        0.000
  WS02006235           JUNCTION        2.53          1.290        0.000
  WS02006238           JUNCTION        2.60          1.430        0.000
  WS02006239           JUNCTION        2.56          1.290        0.000
  WS02006240           JUNCTION        2.58          1.390        0.000
  WS02006242           JUNCTION        2.67          0.820        0.000
  WS02006243           JUNCTION        2.59          0.770        0.000
  WS02006245           JUNCTION        2.59          0.850        0.000
  WS02006247           JUNCTION        2.61          0.760        0.000
  WS02006248           JUNCTION        2.58          0.380        0.000
  WS02006249           JUNCTION        2.59          0.390        0.000
  WS02006251           JUNCTION        1.19          0.428        0.752
  WS02006252           JUNCTION        2.97          1.100        0.000
  WS02006256           JUNCTION        6.85          2.050        0.000
  YS02001580           JUNCTION        1.26          0.450        0.000
  YS02001583           JUNCTION        1.28          0.500        0.000
  YS02001586           JUNCTION        1.58          0.510        0.000
  YS02001590           JUNCTION        1.78          0.750        0.000
  YS02001593           JUNCTION        1.79          0.704        0.136
  YS02001596           JUNCTION        1.90          0.946        0.124
  YS02001600           JUNCTION        1.97          1.190        0.000
  YS02001601           JUNCTION        2.14          1.440        0.000
  YS02001602           JUNCTION        2.09          1.270        0.000
  YS02001605           JUNCTION        2.06          1.180        0.000
  YS02001607           JUNCTION        1.80          0.680        0.000
  YS02001610           JUNCTION        1.82          0.680        0.000
  YS02001613           JUNCTION        1.80          0.672        0.028
  YS02001616           JUNCTION        1.76          0.610        0.000
  YS02001619           JUNCTION        1.74          0.603        0.007
  YS02001622           JUNCTION        1.74          0.620        0.000
  YS02001625           JUNCTION        1.89          0.780        0.000
  YS02001629           JUNCTION        1.61          0.470        0.000
  YS02001633           JUNCTION        1.91          1.060        0.000
  YS02001641           JUNCTION        1.89          1.100        0.000
  YS02001644           JUNCTION        1.88          0.920        0.000
  YS02001647           JUNCTION        1.69          0.900        0.000
  YS02001649           JUNCTION        1.81          1.050        0.000
  YS02001652           JUNCTION        1.54          1.130        0.000
  YS02001655           JUNCTION        1.20          0.732        0.468
  YS02001658           JUNCTION        0.31          0.726        0.574
  YS02001748           JUNCTION        0.03          0.287        0.903
  YS02001751           JUNCTION        0.84          1.200        0.000
  YS02001754           JUNCTION        1.41          1.037        0.113
  YS02001757           JUNCTION        1.86          1.210        0.000
  YS02001759           JUNCTION        1.79          1.210        0.000
  YS02001762           JUNCTION        1.76          1.150        0.000
  YS02001765           JUNCTION        1.73          1.100        0.000
  YS02001767           JUNCTION        1.70          1.030        0.000
  YS02001770           JUNCTION        1.66          0.920        0.000
  YS02001774           JUNCTION        1.75          1.050        0.000
  YS02001779           JUNCTION        1.35          0.680        0.000
  YS02001783           JUNCTION        1.06          0.470        1.130
  YS02001784           JUNCTION        1.02          0.400        1.090
  YS02001786           JUNCTION        0.83          0.100        1.330
  YS02001882           JUNCTION        0.96          0.667        0.163
  YS02001884           JUNCTION        0.98          0.698        0.172
  YS02001887           JUNCTION        1.04          0.768        0.182
  YS02001890           JUNCTION        1.06          0.760        0.000
  YS02001895           JUNCTION        0.95          0.584        0.166
  YS02001898           JUNCTION        0.93          0.735        0.005
  YS02001901           JUNCTION        1.02          0.689        0.181
  YS02001904           JUNCTION        1.00          0.647        0.203
  YS02001907           JUNCTION        1.41          0.950        0.000
  YS02001910           JUNCTION        1.11          0.964        0.136
  YS02001915           JUNCTION        0.96          0.917        0.083
  YS02001918           JUNCTION        0.80          0.810        0.000
  YS02001920           JUNCTION        0.82          1.140        0.000
  YS02001923           JUNCTION        0.01          0.820        0.000
  YS02001926           JUNCTION        0.01          0.900        0.000
  YS02001929           JUNCTION        0.01          0.780        0.000
  YS02006553           JUNCTION        1.45          0.983        0.207
  YS02006556           JUNCTION        1.28          0.910        0.440
  YS02006558           JUNCTION        1.25          0.889        0.511
  YS02006561           JUNCTION        0.75          0.142        1.008
  YS02163301           JUNCTION        1.90          1.030        0.000
  YS02163601           JUNCTION        1.93          1.080        0.000
  YS02164001           JUNCTION        1.89          1.100        0.000
  
  
  *********************
  Node Flooding Summary
  *********************
  
  Flooding refers to all water that overflows a node, whether it ponds or not.
  --------------------------------------------------------------------------
                                                             Total   Maximum
                                 Maximum   Time of Max       Flood    Ponded
                        Hours       Rate    Occurrence      Volume     Depth
  Node                 Flooded       LPS   days hr:min    10^6 ltr    Meters
  --------------------------------------------------------------------------
  WS02006112              0.01   1547.89      0  00:00       0.047     0.000
  WS02006234              0.01     13.11      0  02:24       0.000     0.000
  WS02006235              0.01     27.42      0  02:24       0.000     0.000
  WS02006238              0.01     24.08      0  02:24       0.000     0.000
  WS02006239              0.01      7.97      0  02:24       0.000     0.000
  WS02006240              0.01     10.29      0  02:24       0.000     0.000
  WS02006242              0.01     28.77      0  02:24       0.000     0.000
  WS02006243              0.01      3.57      0  02:24       0.000     0.000
  WS02006245              0.01      3.69      0  02:24       0.000     0.000
  WS02006247              0.01      1.94      0  02:24       0.000     0.000
  WS02006248              0.01      8.32      0  03:05       0.000     0.000
  WS02006249              1.14     95.95      0  01:28       0.276     0.000
  WS02006252              0.01      0.91      0  00:15       0.000     0.000
  WS02006256              1.43    285.82      0  04:35       0.511     0.000
  YS02001580              0.01     79.70      0  01:13       0.000     0.000
  YS02001583              0.01     38.12      0  01:13       0.000     0.000
  YS02001586              0.94    167.32      0  01:36       0.332     0.000
  YS02001590              0.01      0.39      0  01:24       0.000     0.000
  YS02001600              0.01      1.19      0  01:24       0.000     0.000
  YS02001601              1.45    670.21      0  01:33       2.103     0.000
  YS02001602              1.35     62.02      0  01:50       0.279     0.000
  YS02001605              0.01      0.41      0  02:24       0.000     0.000
  YS02001607              0.01      0.60      0  02:23       0.000     0.000
  YS02001610              1.20    339.43      0  01:35       0.778     0.000
  YS02001616              0.01      5.72      0  01:24       0.000     0.000
  YS02001622              0.01      0.75      0  01:24       0.000     0.000
  YS02001625              1.23    784.84      0  01:35       1.709     0.000
  YS02001629              0.05    205.46      0  01:13       0.001     0.000
  YS02001633              0.01      0.79      0  02:23       0.000     0.000
  YS02001641              0.01      0.96      0  01:24       0.000     0.000
  YS02001644              0.03     18.96      0  01:31       0.000     0.000
  YS02001647              0.01      2.10      0  01:24       0.000     0.000
  YS02001649              0.01      3.10      0  01:24       0.000     0.000
  YS02001652              0.01      1.50      0  01:24       0.000     0.000
  YS02001751              0.01    166.79      0  02:15       0.000     0.000
  YS02001757              0.01      1.91      0  01:24       0.000     0.000
  YS02001759              0.01      1.88      0  01:24       0.000     0.000
  YS02001762              0.01      2.28      0  01:24       0.000     0.000
  YS02001765              0.01      2.14      0  01:24       0.000     0.000
  YS02001767              0.01      1.67      0  01:24       0.000     0.000
  YS02001770              0.01      4.44      0  01:24       0.000     0.000
  YS02001774              0.01      2.88      0  01:24       0.000     0.000
  YS02001779              0.01     89.01      0  01:18       0.000     0.000
  YS02001890              0.01     31.88      0  01:24       0.001     0.000
  YS02001907              0.71    654.23      0  01:18       1.044     0.000
  YS02001918              0.01     72.71      0  01:17       0.000     0.000
  YS02001920              0.01     24.55      0  01:17       0.000     0.000
  YS02001923              0.01     26.54      0  01:17       0.000     0.000
  YS02001926              0.01     65.60      0  01:17       0.000     0.000
  YS02001929              0.01     41.93      0  01:17       0.000     0.000
  YS02163301              0.01      1.09      0  01:24       0.000     0.000
  YS02163601              0.01      1.16      0  02:23       0.000     0.000
  YS02164001              0.01      2.41      0  01:24       0.000     0.000
  
  
  **********************
  Storage Volume Summary
  **********************
  
  ------------------------------------------------------------------------------------------------
                         Average    Avg   Evap  Exfil     Maximum    Max    Time of Max    Maximum
                          Volume   Pcnt   Pcnt   Pcnt      Volume   Pcnt     Occurrence    Outflow
  Storage Unit           1000 m³   Full   Loss   Loss     1000 m³   Full    days hr:min        LPS
  ------------------------------------------------------------------------------------------------
  CC-storage               2.848   44.4    0.0    0.0       5.351   83.5       0  02:29    1766.00
  JK-storage               0.084   29.0    0.0    0.0       0.212   72.6       0  01:44    2300.00
  
  
  ***********************
  Outfall Loading Summary
  ***********************
  
  -----------------------------------------------------------
                         Flow       Avg       Max       Total
                         Freq      Flow      Flow      Volume
  Outfall Node           Pcnt       LPS       LPS    10^6 ltr
  -----------------------------------------------------------
  CC-1                  50.44    683.00    683.00       6.625
  CC-2                  45.58    683.00    683.00       5.664
  JK-1                  14.62   1000.00   1000.00       2.920
  JK-2                  12.06   1000.00   1000.00       2.218
  WSC                   99.99    273.25    552.22       6.105
  -----------------------------------------------------------
  System                44.54   3639.25   3897.71      23.533
  
  
  ********************
  Link Flow Summary
  ********************
  
  -----------------------------------------------------------------------------
                                 Maximum  Time of Max   Maximum    Max/    Max/
                                  |Flow|   Occurrence   |Veloc|    Full    Full
  Link                 Type          LPS  days hr:min     m/sec    Flow   Depth
  -----------------------------------------------------------------------------
  1                    CONDUIT    552.22     0  02:20      2.82    0.19    0.30
  WS02003060WS02003069 CONDUIT    550.84     0  02:18      1.64    0.22    0.34
  WS02003066WSF200     CONDUIT    534.35     0  02:18      2.85    0.09    0.22
  WS02003067WS02003066 CONDUIT    534.31     0  02:18      1.20    0.17    0.41
  WS02003069WS02003072 CONDUIT    550.92     0  02:19      1.37    0.27    0.39
  WS02003072WS02003073 CONDUIT    550.71     0  02:19      1.43    1.19    0.37
  WS02004401WS02004402 CONDUIT   1171.33     0  00:01      2.51    1.41    0.86
  WS02004402WS02004403 CONDUIT    884.75     0  00:01      2.16    1.27    0.88
  WS02004403WS02004404 CONDUIT    832.43     0  00:01      1.96    0.60    0.93
  WS02004404WS02004405 CONDUIT    776.45     0  00:01      2.26    7.61    0.96
  WS02004405WS02004406 CONDUIT    711.76     0  00:02      2.15    1.40    0.96
  WS02004406WS02004407 CONDUIT    535.94     0  03:00      1.04    0.24    0.63
  WS02004407WS02004409 CONDUIT    535.76     0  03:00      1.95    0.19    0.48
  WS02004409WS02004410 CONDUIT    535.14     0  02:16      1.31    0.69    0.67
  WS02004410WS02004411 CONDUIT    534.94     0  02:16      1.19    0.73    0.68
  WS02004411WS02004412 CONDUIT    534.65     0  02:17      1.08    0.76    0.69
  WS02004412WS02004413 CONDUIT    534.55     0  02:17      1.10    0.36    0.78
  WS02004413WS02003067 CONDUIT    534.29     0  02:17      1.11    0.23    0.59
  WS02006109WS02006110 CONDUIT   1306.78     0  00:00      3.14    2.51    1.00
  WS02006110WS02006113 CONDUIT    579.52     0  02:51      1.40    0.53    1.00
  WS02006111WS02006112 CONDUIT   2307.30     0  00:00      9.18    1.10    0.91
  WS02006112WS02006115 CONDUIT    899.27     0  00:00      1.16    0.53    1.00
  WS02006113WS02006111 CONDUIT   1176.04     0  00:00      2.47    1.41    1.00
  WS02006115WS02006116 CONDUIT   1098.16     0  00:01      1.72    1.41    1.00
  WS02006116WS02004401 CONDUIT   1677.78     0  00:00      2.92    2.31    0.84
  WS02006228WS02006109 CONDUIT    560.06     0  03:05      1.40    2.45    1.00
  WS02006229WS02006228 CONDUIT    559.15     0  03:05      1.24    1.85    1.00
  WS02006230WS02006229 CONDUIT    558.48     0  03:05      1.45   12.43    1.00
  WS02006231WS02006230 CONDUIT    577.46     0  02:50      1.59    8.76    1.00
  WS02006232WS02006231 CONDUIT    612.88     0  02:24      1.61    1.28    1.00
  WS02006234WS02006232 CONDUIT    608.27     0  02:24      1.58    1.23    1.00
  WS02006235WS02006234 CONDUIT    593.74     0  02:24      1.54    6.26    1.00
  WS02006238WS02006235 CONDUIT    424.43     0  01:30      1.67    0.95    1.00
  WS02006239WS02006238 CONDUIT    424.53     0  01:30      1.27    1.36    1.00
  WS02006240WS02006239 CONDUIT    423.74     0  01:30      1.33    1.33    1.00
  WS02006242WS02006240 CONDUIT    421.18     0  03:51      1.17    1.67    1.00
  WS02006243WS02006242 CONDUIT    421.25     0  03:51      1.45    0.90    1.00
  WS02006245WS02006243 CONDUIT    422.09     0  03:46      1.46    1.25    1.00
  WS02006247WS02006245 CONDUIT    423.48     0  03:51      1.42    3.36    1.00
  WS02006248WS02006247 CONDUIT    423.60     0  03:51      1.53    0.92    1.00
  WS02006249WS02006248 CONDUIT    424.87     0  03:51      1.54    2.33    1.00
  WS02006251WS02006249 CONDUIT    824.67     0  00:05      2.86    2.38    1.00
  WS02006252WS02006251 CONDUIT    460.01     0  00:05     21.38    1.69    1.00
  WS02006256WS02006235 CONDUIT    288.43     0  06:50      4.21    3.05    1.00
  WSF200WS02003060     CONDUIT    534.44     0  02:18      2.06    0.12    0.28
  YS02001580YS02001583 CONDUIT    115.53     0  01:13      0.68    0.45    1.00
  YS02001583YS02001586 CONDUIT    147.36     0  01:12      0.63    0.22    1.00
  YS02001586YS02001590 CONDUIT    323.32     0  01:24      1.29    0.57    1.00
  YS02001590YS02001593 CONDUIT    323.79     0  01:24      1.15    2.03    1.00
  YS02001593YS02001596 CONDUIT    317.99     0  02:05      1.67    0.50    1.00
  YS02001596YS02001600 CONDUIT    318.29     0  01:24      1.23    0.62    1.00
  YS02001600YS02001601 CONDUIT    318.75     0  01:24      1.13    0.55    1.00
  YS02001601YS02001602 CONDUIT    581.51     0  01:12      2.06    2.10    1.00
  YS02001602YS02001605 CONDUIT    581.00     0  01:12      2.05   12.29    1.00
  YS02001605YS02001607 CONDUIT    581.15     0  01:13      2.06    3.19    1.00
  YS02001607YS02001610 CONDUIT    554.29     0  01:12      0.80    0.53    1.00
  YS02001610YS02001613 CONDUIT    552.70     0  01:13      0.76    0.64    1.00
  YS02001613YS02001616 CONDUIT    556.84     0  01:13      0.82    0.48    1.00
  YS02001616YS02001619 CONDUIT    508.35     0  01:13      0.85    0.88    1.00
  YS02001619YS02001622 CONDUIT    934.06     0  01:13      1.76    1.38    1.00
  YS02001622YS02001625 CONDUIT    939.26     0  01:13      1.20    0.50    1.00
  YS02001625YS02001629 CONDUIT    940.20     0  01:13      1.20    0.45    1.00
  YS02001629YS02163301 CONDUIT    909.63     0  01:16      1.16    1.12    1.00
  YS02001633YS02163601 CONDUIT   1344.24     0  01:16      1.71    1.41    1.00
  YS02001641YS02001644 CONDUIT   1347.36     0  01:16      1.72    4.36    1.00
  YS02001644YS02001647 CONDUIT   1746.41     0  01:16      2.25    1.03    1.00
  YS02001647YS02001649 CONDUIT   1754.64     0  01:16      2.35    0.93    1.00
  YS02001649YS02001757 CONDUIT   2034.53     0  01:15      2.63    1.23    1.00
  YS02001652YS02001649 CONDUIT    480.29     0  01:32      1.34    0.24    1.00
  YS02001655YS02001652 CONDUIT    486.16     0  01:24      1.80    0.24    1.00
  YS02001658YS02001655 CONDUIT    557.55     0  01:24      1.99    0.24    1.00
  YS02001661YS02001658 CONDUIT    809.61     0  01:24      2.26    0.32    0.86
  YS02001664YS02001661 CONDUIT    451.60     0  01:33      2.13    0.14    0.52
  YS02001745YS02001748 CONDUIT    591.72     0  01:32      2.11    0.23    0.73
  YS02001748YS02001751 CONDUIT    407.48     0  01:20      1.74    0.21    1.00
  YS02001751YS02001754 CONDUIT    314.57     0  01:32      1.66    0.15    1.00
  YS02001754YS02001757 CONDUIT    315.65     0  01:32      1.06    0.13    1.00
  YS02001757CaochengTiaoxuchi CONDUIT   3036.50     0  01:22      3.93    1.31    1.00
  YS02001759YS02001757 CONDUIT   1009.33     0  01:24      1.31    0.72    1.00
  YS02001762YS02001759 CONDUIT    632.08     0  01:24      0.80    0.73    1.00
  YS02001765YS02001762 CONDUIT    626.04     0  01:24      0.85    0.59    1.00
  YS02001767YS02001765 CONDUIT    619.68     0  01:24      0.95    0.78    1.00
  YS02001770YS02001767 CONDUIT    611.77     0  01:24      0.94    2.42    1.00
  YS02001774YS02001770 CONDUIT    154.53     0  01:17      0.72    0.10    1.00
  YS02001779YS02001774 CONDUIT    149.39     0  01:17      0.20    0.08    1.00
  YS02001783YS02001784 CONDUIT   1148.51     0  01:28      2.28    1.58    1.00
  YS02001784YS02001785 CONDUIT   1149.22     0  01:28      2.29    2.67    1.00
  YS02001786YS02001788 CONDUIT   1149.38     0  01:28      2.46    2.21    0.89
  YS02001788YS02001790 CONDUIT   1163.70     0  01:28      2.71    0.86    0.84
  YS02001790YS02001791 CONDUIT   1282.34     0  01:30      3.42    1.40    0.70
  YS02001791YS02001793 CONDUIT   1235.65     0  01:34      6.77    0.53    0.44
  YS02001793JiankangQianchi CONDUIT   1283.04     0  01:55      2.57    0.10    0.65
  YS02001882YS02001884 CONDUIT     72.99     0  01:14      0.41    0.08    1.00
  YS02001884YS02001887 CONDUIT    133.14     0  01:11      0.36    0.18    1.00
  YS02001887YS02001890 CONDUIT    390.44     0  01:30      0.50    0.67    1.00
  YS02001890YS02001895 CONDUIT    389.48     0  01:31      0.50    0.18    1.00
  YS02001895YS02001898 CONDUIT    391.83     0  01:15      0.72    0.68    1.00
  YS02001898YS02001901 CONDUIT    402.36     0  01:15      0.59    0.26    1.00
  YS02001901YS02001904 CONDUIT    403.36     0  01:15      0.64    0.63    1.00
  YS02001904YS02001907 CONDUIT    407.93     0  01:15      0.52    0.14    1.00
  YS02001907YS02006553 CONDUIT    783.82     0  02:01      0.87    0.92    1.00
  YS02001910YS02001907 CONDUIT    888.94     0  01:18      1.13    0.50    1.00
  YS02001915YS02001910 CONDUIT    888.76     0  01:18      1.13    0.44    1.00
  YS02001918YS02001915 CONDUIT    428.22     0  01:18      0.55    0.24    1.00
  YS02001920YS02001918 CONDUIT    428.05     0  01:18      0.70    0.41    1.00
  YS02001923YS02001920 CONDUIT    425.04     0  01:18      0.81    0.19    1.00
  YS02001926YS02001923 CONDUIT    364.82     0  01:18      0.94    0.52    1.00
  YS02001929YS02001926 CONDUIT    349.96     0  01:18      1.08    0.17    1.00
  YS02006553YS02006556 CONDUIT    783.24     0  02:00      1.00    0.67    1.00
  YS02006556YS02006558 CONDUIT    784.65     0  02:01      1.00    0.62    1.00
  YS02006558YS02006561 CONDUIT   1150.91     0  01:24      4.07    2.54    1.00
  YS02006561YS02001783 CONDUIT   1148.58     0  01:28      2.29    0.59    1.00
  YS02163301YS02001633 CONDUIT    909.10     0  01:16      1.16    0.85    1.00
  YS02163601YS02164001 CONDUIT   1344.47     0  01:16      1.71    1.19    1.00
  YS02164001YS02001641 CONDUIT   1346.37     0  01:16      1.71    1.84    1.00
  CC-R1                PUMP       683.00     0  00:05              1.00
  CC-R2                PUMP       683.00     0  01:15              1.00
  CC-S1                PUMP       200.00     0  00:05              1.00
  CC-S2                PUMP       200.00     0  00:05              1.00
  JK-R1                PUMP      1000.00     0  00:05              1.00
  JK-R2                PUMP      1000.00     0  01:15              1.00
  JK-S                 PUMP       300.00     0  00:30              1.00
  
  
  ***************************
  Flow Classification Summary
  ***************************
  
  -------------------------------------------------------------------------------------
                      Adjusted    ---------- Fraction of Time in Flow Class ---------- 
                       /Actual         Up    Down  Sub   Sup   Up    Down  Norm  Inlet 
  Conduit               Length    Dry  Dry   Dry   Crit  Crit  Crit  Crit  Ltd   Ctrl  
  -------------------------------------------------------------------------------------
  1                       1.00   0.00  0.00  0.00  0.00  1.00  0.00  0.00  0.35  0.00
  WS02003060WS02003069    1.00   0.00  0.00  0.00  0.96  0.04  0.00  0.00  0.62  0.00
  WS02003066WSF200        1.00   0.03  0.00  0.00  0.00  0.97  0.00  0.00  0.82  0.00
  WS02003067WS02003066    1.00   0.02  0.01  0.00  0.97  0.00  0.00  0.00  0.00  0.00
  WS02003069WS02003072    1.00   0.00  0.00  0.00  0.99  0.01  0.00  0.00  0.65  0.00
  WS02003072WS02003073    1.00   0.00  0.00  0.00  0.00  0.00  0.00  1.00  0.00  0.00
  WS02004401WS02004402    1.00   0.00  0.00  0.00  1.00  0.00  0.00  0.00  0.00  0.00
  WS02004402WS02004403    1.00   0.00  0.00  0.00  1.00  0.00  0.00  0.00  0.00  0.00
  WS02004403WS02004404    1.00   0.00  0.00  0.00  1.00  0.00  0.00  0.00  0.00  0.00
  WS02004404WS02004405    1.00   0.00  0.00  0.00  1.00  0.00  0.00  0.00  0.01  0.00
  WS02004405WS02004406    1.00   0.00  0.00  0.00  1.00  0.00  0.00  0.00  0.00  0.00
  WS02004406WS02004407    1.00   0.00  0.00  0.00  1.00  0.00  0.00  0.00  0.00  0.00
  WS02004407WS02004409    1.00   0.00  0.00  0.00  0.99  0.00  0.00  0.00  0.99  0.00
  WS02004409WS02004410    1.00   0.00  0.00  0.00  0.99  0.00  0.00  0.00  0.00  0.00
  WS02004410WS02004411    1.00   0.01  0.00  0.00  0.99  0.00  0.00  0.00  0.00  0.00
  WS02004411WS02004412    1.00   0.01  0.00  0.00  0.99  0.00  0.00  0.00  0.00  0.00
  WS02004412WS02004413    1.00   0.01  0.00  0.00  0.99  0.00  0.00  0.00  0.00  0.00
  WS02004413WS02003067    1.00   0.01  0.01  0.00  0.00  0.00  0.98  0.00  0.00  0.00
  WS02006109WS02006110    1.00   0.00  0.00  0.00  1.00  0.00  0.00  0.00  0.00  0.00
  WS02006110WS02006113    1.00   0.00  0.00  0.00  1.00  0.00  0.00  0.00  0.00  0.00
  WS02006111WS02006112    1.00   0.00  0.00  0.00  1.00  0.00  0.00  0.00  1.00  0.00
  WS02006112WS02006115    1.00   0.00  0.00  0.00  1.00  0.00  0.00  0.00  0.00  0.00
  WS02006113WS02006111    1.00   0.00  0.00  0.00  0.01  0.99  0.00  0.00  0.15  0.00
  WS02006115WS02006116    1.00   0.00  0.00  0.00  1.00  0.00  0.00  0.00  0.00  0.00
  WS02006116WS02004401    1.00   0.00  0.00  0.00  1.00  0.00  0.00  0.00  0.00  0.00
  WS02006228WS02006109    1.00   0.00  0.00  0.00  1.00  0.00  0.00  0.00  0.00  0.00
  WS02006229WS02006228    1.00   0.00  0.00  0.00  1.00  0.00  0.00  0.00  0.00  0.00
  WS02006230WS02006229    1.00   0.00  0.00  0.00  1.00  0.00  0.00  0.00  0.04  0.00
  WS02006231WS02006230    1.00   0.00  0.00  0.00  0.35  0.00  0.65  0.00  0.00  0.00
  WS02006232WS02006231    1.00   0.00  0.00  0.00  0.99  0.00  0.01  0.00  0.00  0.00
  WS02006234WS02006232    1.00   0.00  0.00  0.00  0.99  0.00  0.00  0.00  0.02  0.00
  WS02006235WS02006234    1.00   0.01  0.00  0.00  0.95  0.00  0.04  0.00  0.00  0.00
  WS02006238WS02006235    1.00   0.01  0.00  0.00  0.98  0.00  0.00  0.00  0.00  0.00
  WS02006239WS02006238    1.00   0.01  0.00  0.00  0.98  0.00  0.00  0.00  0.13  0.00
  WS02006240WS02006239    1.00   0.01  0.00  0.00  0.71  0.00  0.00  0.28  0.03  0.00
  WS02006242WS02006240    1.00   0.01  0.00  0.00  0.98  0.00  0.01  0.00  0.00  0.00
  WS02006243WS02006242    1.00   0.01  0.00  0.00  0.98  0.00  0.00  0.00  0.53  0.00
  WS02006245WS02006243    1.00   0.01  0.00  0.00  0.83  0.00  0.00  0.16  0.01  0.00
  WS02006247WS02006245    1.00   0.01  0.00  0.00  0.97  0.00  0.00  0.02  0.00  0.00
  WS02006248WS02006247    1.00   0.01  0.00  0.00  0.98  0.00  0.00  0.01  0.49  0.00
  WS02006249WS02006248    1.00   0.00  0.01  0.00  0.47  0.00  0.52  0.00  0.00  0.00
  WS02006251WS02006249    1.00   0.00  0.00  0.00  0.99  0.01  0.00  0.00  0.52  0.00
  WS02006252WS02006251    1.00   0.01  0.48  0.00  0.15  0.00  0.36  0.00  0.00  0.00
  WS02006256WS02006235    1.00   0.01  0.00  0.00  0.97  0.02  0.00  0.00  0.00  0.00
  WSF200WS02003060        1.00   0.00  0.03  0.00  0.40  0.57  0.00  0.00  0.59  0.00
  YS02001580YS02001583    1.00   0.15  0.54  0.00  0.31  0.00  0.00  0.00  0.63  0.00
  YS02001583YS02001586    1.00   0.39  0.24  0.00  0.36  0.00  0.00  0.00  0.63  0.00
  YS02001586YS02001590    1.00   0.13  0.00  0.00  0.47  0.04  0.00  0.37  0.26  0.00
  YS02001590YS02001593    1.00   0.13  0.00  0.00  0.24  0.00  0.64  0.00  0.00  0.00
  YS02001593YS02001596    1.00   0.13  0.00  0.00  0.25  0.00  0.00  0.62  0.01  0.00
  YS02001596YS02001600    1.00   0.13  0.00  0.00  0.28  0.01  0.00  0.59  0.02  0.00
  YS02001600YS02001601    1.00   0.13  0.00  0.00  0.87  0.00  0.00  0.00  0.55  0.00
  YS02001601YS02001602    1.00   0.13  0.00  0.00  0.87  0.00  0.00  0.00  0.00  0.00
  YS02001602YS02001605    1.00   0.13  0.00  0.00  0.87  0.00  0.00  0.00  0.00  0.00
  YS02001605YS02001607    1.00   0.13  0.00  0.00  0.87  0.00  0.00  0.00  0.00  0.00
  YS02001607YS02001610    1.00   0.13  0.00  0.00  0.87  0.00  0.00  0.00  0.00  0.00
  YS02001610YS02001613    1.00   0.13  0.00  0.00  0.87  0.00  0.00  0.00  0.00  0.00
  YS02001613YS02001616    1.00   0.13  0.00  0.00  0.87  0.00  0.00  0.00  0.00  0.00
  YS02001616YS02001619    1.00   0.13  0.00  0.00  0.87  0.00  0.00  0.00  0.00  0.00
  YS02001619YS02001622    1.00   0.13  0.00  0.00  0.87  0.00  0.00  0.00  0.27  0.00
  YS02001622YS02001625    1.00   0.13  0.00  0.00  0.87  0.01  0.00  0.00  0.01  0.00
  YS02001625YS02001629    1.00   0.13  0.01  0.00  0.26  0.00  0.60  0.00  0.00  0.00
  YS02001629YS02163301    1.00   0.13  0.00  0.00  0.87  0.00  0.00  0.00  0.00  0.00
  YS02001633YS02163601    1.00   0.00  0.01  0.00  0.99  0.00  0.00  0.00  0.12  0.00
  YS02001641YS02001644    1.00   0.00  0.01  0.00  0.99  0.00  0.00  0.00  0.00  0.00
  YS02001644YS02001647    1.00   0.00  0.13  0.00  0.87  0.00  0.00  0.00  0.00  0.00
  YS02001647YS02001649    1.00   0.00  0.13  0.00  0.65  0.22  0.00  0.00  0.55  0.00
  YS02001649YS02001757    1.00   0.00  0.00  0.00  0.77  0.23  0.00  0.00  0.35  0.00
  YS02001652YS02001649    1.00   0.00  0.00  0.00  0.99  0.01  0.00  0.00  0.66  0.00
  YS02001655YS02001652    1.00   0.00  0.00  0.00  0.29  0.00  0.00  0.70  0.03  0.00
  YS02001658YS02001655    1.00   0.00  0.13  0.00  0.78  0.09  0.00  0.00  0.61  0.00
  YS02001661YS02001658    1.00   0.13  0.00  0.00  0.62  0.25  0.00  0.00  0.65  0.00
  YS02001664YS02001661    1.00   0.13  0.00  0.00  0.80  0.08  0.00  0.00  0.87  0.00
  YS02001745YS02001748    1.00   0.00  0.00  0.00  0.23  0.00  0.00  0.77  0.06  0.00
  YS02001748YS02001751    1.00   0.00  0.00  0.00  0.93  0.07  0.00  0.00  0.72  0.00
  YS02001751YS02001754    1.00   0.00  0.00  0.00  0.28  0.01  0.00  0.71  0.03  0.00
  YS02001754YS02001757    1.00   0.00  0.00  0.00  1.00  0.00  0.00  0.00  0.69  0.00
  YS02001757CaochengTiaoxuchi    1.00   0.00  0.00  0.00  0.98  0.02  0.00  0.00  0.66  0.00
  YS02001759YS02001757    1.00   0.00  0.00  0.00  0.99  0.01  0.00  0.00  0.64  0.00
  YS02001762YS02001759    1.00   0.00  0.00  0.00  1.00  0.00  0.00  0.00  0.01  0.00
  YS02001765YS02001762    1.00   0.00  0.00  0.00  1.00  0.00  0.00  0.00  0.64  0.00
  YS02001767YS02001765    1.00   0.00  0.00  0.00  1.00  0.00  0.00  0.00  0.00  0.00
  YS02001770YS02001767    1.00   0.00  0.00  0.00  1.00  0.00  0.00  0.00  0.00  0.00
  YS02001774YS02001770    1.00   0.00  0.12  0.00  0.72  0.00  0.15  0.00  0.00  0.00
  YS02001779YS02001774    1.00   0.00  0.00  0.00  1.00  0.00  0.00  0.00  0.69  0.00
  YS02001783YS02001784    1.00   0.00  0.14  0.00  0.86  0.00  0.00  0.00  0.54  0.00
  YS02001784YS02001785    1.00   0.00  0.00  0.00  1.00  0.00  0.00  0.00  0.12  0.00
  YS02001786YS02001788    1.00   0.00  0.00  0.00  0.80  0.20  0.00  0.00  0.00  0.00
  YS02001788YS02001790    1.00   0.00  0.00  0.00  0.19  0.81  0.00  0.00  0.74  0.00
  YS02001790YS02001791    1.00   0.00  0.00  0.00  0.01  0.99  0.00  0.00  0.16  0.00
  YS02001791YS02001793    1.00   0.00  0.00  0.00  0.00  1.00  0.00  0.00  0.02  0.00
  YS02001793JiankangQianchi    1.00   0.00  0.00  0.00  0.93  0.07  0.00  0.00  0.95  0.00
  YS02001882YS02001884    1.00   0.13  0.00  0.00  0.87  0.00  0.00  0.00  0.00  0.00
  YS02001884YS02001887    1.00   0.06  0.05  0.00  0.89  0.00  0.00  0.00  0.00  0.00
  YS02001887YS02001890    1.00   0.00  0.00  0.00  0.97  0.00  0.03  0.00  0.00  0.00
  YS02001890YS02001895    1.00   0.00  0.13  0.00  0.87  0.00  0.00  0.00  0.00  0.00
  YS02001895YS02001898    1.00   0.13  0.00  0.00  0.86  0.00  0.01  0.00  0.00  0.00
  YS02001898YS02001901    1.00   0.13  0.00  0.00  0.87  0.00  0.00  0.00  0.00  0.00
  YS02001901YS02001904    1.00   0.13  0.00  0.00  0.87  0.00  0.00  0.00  0.00  0.00
  YS02001904YS02001907    1.00   0.00  0.13  0.00  0.87  0.00  0.00  0.00  0.00  0.00
  YS02001907YS02006553    1.00   0.00  0.02  0.00  0.98  0.00  0.00  0.00  0.00  0.00
  YS02001910YS02001907    1.00   0.00  0.00  0.00  0.97  0.00  0.00  0.03  0.10  0.00
  YS02001915YS02001910    1.00   0.00  0.00  0.00  0.98  0.02  0.00  0.00  0.11  0.00
  YS02001918YS02001915    1.00   0.00  0.00  0.00  0.98  0.02  0.00  0.00  0.64  0.00
  YS02001920YS02001918    1.00   0.00  0.00  0.00  1.00  0.00  0.00  0.00  0.01  0.00
  YS02001923YS02001920    1.00   0.00  0.00  0.00  1.00  0.00  0.00  0.00  0.85  0.00
  YS02001926YS02001923    1.00   0.00  0.07  0.00  0.12  0.00  0.80  0.00  0.00  0.00
  YS02001929YS02001926    1.00   0.00  0.13  0.00  0.87  0.00  0.00  0.00  0.76  0.00
  YS02006553YS02006556    1.00   0.01  0.00  0.00  0.99  0.00  0.00  0.00  0.03  0.00
  YS02006556YS02006558    1.00   0.00  0.00  0.00  1.00  0.00  0.00  0.00  0.00  0.00
  YS02006558YS02006561    1.00   0.14  0.00  0.00  0.11  0.75  0.00  0.00  0.15  0.00
  YS02006561YS02001783    1.00   0.14  0.00  0.00  0.17  0.70  0.00  0.00  0.62  0.00
  YS02163301YS02001633    1.00   0.00  0.13  0.00  0.87  0.00  0.00  0.00  0.00  0.00
  YS02163601YS02164001    1.00   0.00  0.08  0.00  0.92  0.00  0.00  0.00  0.00  0.00
  YS02164001YS02001641    1.00   0.01  0.07  0.00  0.92  0.00  0.00  0.00  0.05  0.00
  
  
  *************************
  Conduit Surcharge Summary
  *************************
  
  ----------------------------------------------------------------------------
                                                           Hours        Hours 
                         --------- Hours Full --------   Above Full   Capacity
  Conduit                Both Ends  Upstream  Dnstream   Normal Flow   Limited
  ----------------------------------------------------------------------------
  WS02003072WS02003073        0.01      0.01      0.01      1.65         0.01
  WS02004401WS02004402        0.01      0.01      0.01      0.01         0.01
  WS02004402WS02004403        0.01      0.01      0.01      0.01         0.01
  WS02004404WS02004405        0.01      0.01      0.01      3.60         0.01
  WS02004405WS02004406        0.01      0.01      0.01      0.85         0.01
  WS02006109WS02006110        0.92      0.93      2.65      1.08         0.01
  WS02006110WS02006113        0.01      0.01      2.61      0.01         0.01
  WS02006111WS02006112        0.01      0.01      2.84      0.01         0.01
  WS02006112WS02006115        0.01      0.01      0.97      0.01         0.01
  WS02006113WS02006111        0.01      0.01      0.01      0.01         0.01
  WS02006115WS02006116        0.01      0.01      0.01      0.01         0.01
  WS02006116WS02004401        0.01      0.01      0.01      0.01         0.01
  WS02006228WS02006109        2.56      2.65      2.56      3.04         2.56
  WS02006229WS02006228        2.56      2.57      2.56      2.81         2.55
  WS02006230WS02006229        2.71      2.78      2.71      3.89         2.71
  WS02006231WS02006230        0.95      0.95      1.17      3.58         0.01
  WS02006232WS02006231        1.10      1.10      2.65      1.19         0.01
  WS02006234WS02006232        2.51      2.51      2.65      1.18         1.15
  WS02006235WS02006234        1.59      1.60      2.52      3.47         0.02
  WS02006238WS02006235        2.55      2.55      2.65      0.01         0.01
  WS02006239WS02006238        2.59      2.64      2.60      2.82         2.33
  WS02006240WS02006239        2.56      2.59      2.56      2.83         2.21
  WS02006242WS02006240        2.58      2.58      2.72      2.91         0.01
  WS02006243WS02006242        2.60      2.60      2.67      0.01         0.06
  WS02006245WS02006243        2.59      2.60      2.59      1.85         1.73
  WS02006247WS02006245        2.59      2.62      2.59      3.16         2.57
  WS02006248WS02006247        2.59      2.59      2.61      0.01         0.06
  WS02006249WS02006248        2.58      2.58      2.59      3.14         0.01
  WS02006251WS02006249        2.59      2.60      2.59      2.88         2.50
  WS02006252WS02006251        2.94      2.94      2.96      2.94         0.01
  WS02006256WS02006235        3.47      3.53      6.75      1.47         0.01
  YS02001580YS02001583        1.26      1.26      1.34      0.01         0.01
  YS02001583YS02001586        1.28      1.28      1.58      0.01         0.01
  YS02001586YS02001590        1.60      1.60      1.78      0.01         0.01
  YS02001590YS02001593        1.79      1.79      1.81      1.82         0.01
  YS02001593YS02001596        1.80      1.80      1.90      0.01         0.01
  YS02001596YS02001600        1.92      1.92      1.97      0.01         0.01
  YS02001600YS02001601        2.00      2.00      2.14      0.01         0.01
  YS02001601YS02001602        2.09      2.09      2.16      1.97         0.01
  YS02001602YS02001605        2.06      2.06      2.09      2.65         0.01
  YS02001605YS02001607        2.04      2.06      2.04      2.09         2.03
  YS02001607YS02001610        1.80      1.80      1.82      0.01         0.01
  YS02001610YS02001613        1.80      1.80      1.82      0.01         0.01
  YS02001613YS02001616        1.76      1.76      1.80      0.01         0.01
  YS02001616YS02001619        1.74      1.74      1.76      0.01         0.01
  YS02001619YS02001622        1.74      1.74      1.74      1.58         1.35
  YS02001622YS02001625        1.74      1.74      1.89      0.01         0.01
  YS02001625YS02001629        1.61      1.61      1.89      0.01         0.01
  YS02001629YS02163301        1.89      1.89      1.90      0.07         0.14
  YS02001633YS02163601        1.91      1.91      1.93      0.17         0.32
  YS02001641YS02001644        1.88      1.89      1.88      2.18         1.87
  YS02001644YS02001647        1.69      1.69      1.88      0.03         0.01
  YS02001647YS02001649        1.69      1.69      1.81      0.01         0.01
  YS02001649YS02001757        1.80      1.81      1.86      0.25         0.20
  YS02001652YS02001649        1.61      1.61      1.81      0.01         0.01
  YS02001655YS02001652        1.20      1.20      1.54      0.01         0.01
  YS02001658YS02001655        0.30      0.30      1.20      0.01         0.01
  YS02001661YS02001658        0.01      0.01      0.30      0.01         0.01
  YS02001745YS02001748        0.01      0.01      0.03      0.01         0.01
  YS02001748YS02001751        0.19      0.19      0.84      0.01         0.01
  YS02001751YS02001754        0.83      0.83      1.41      0.01         0.01
  YS02001754YS02001757        1.49      1.49      1.86      0.01         0.01
  YS02001757CaochengTiaoxuchi        1.76      1.86      2.38      0.66         0.51
  YS02001759YS02001757        1.79      1.79      1.86      0.01         0.01
  YS02001762YS02001759        1.76      1.76      1.79      0.01         0.02
  YS02001765YS02001762        1.73      1.73      1.76      0.01         0.01
  YS02001767YS02001765        1.70      1.70      1.73      0.01         0.02
  YS02001770YS02001767        1.70      1.70      1.70      1.10         1.03
  YS02001774YS02001770        1.66      1.66      1.75      0.01         0.01
  YS02001779YS02001774        1.35      1.35      1.75      0.01         0.01
  YS02001783YS02001784        1.02      1.06      1.02      1.32         1.02
  YS02001784YS02001785        0.83      1.02      0.83      1.86         0.83
  YS02001786YS02001788        0.01      0.83      0.01      1.48         0.01
  YS02001790YS02001791        0.01      0.01      0.01      0.99         0.01
  YS02001793JiankangQianchi        0.01      0.01      7.07      0.01         0.01
  YS02001882YS02001884        0.96      0.96      0.98      0.01         0.01
  YS02001884YS02001887        1.02      1.02      1.04      0.01         0.01
  YS02001887YS02001890        1.06      1.06      1.08      0.01         0.01
  YS02001890YS02001895        0.95      0.95      1.11      0.01         0.01
  YS02001895YS02001898        0.93      0.93      0.95      0.01         0.01
  YS02001898YS02001901        0.95      0.95      1.02      0.01         0.01
  YS02001901YS02001904        1.00      1.00      1.02      0.01         0.01
  YS02001904YS02001907        1.00      1.00      1.46      0.01         0.01
  YS02001907YS02006553        1.87      1.87      1.91      0.01         0.01
  YS02001910YS02001907        1.11      1.11      1.41      0.01         0.01
  YS02001915YS02001910        0.96      0.96      1.11      0.01         0.01
  YS02001918YS02001915        0.80      0.80      0.96      0.01         0.01
  YS02001920YS02001918        0.80      0.80      0.82      0.01         0.01
  YS02001923YS02001920        0.72      0.72      0.82      0.01         0.01
  YS02001926YS02001923        0.01      0.01      0.01      0.01         0.01
  YS02001929YS02001926        0.01      0.01      0.01      0.01         0.01
  YS02006553YS02006556        1.28      1.28      1.45      0.01         0.01
  YS02006556YS02006558        1.35      1.35      1.50      0.01         0.01
  YS02006558YS02006561        0.86      1.25      0.86      1.75         0.86
  YS02006561YS02001783        0.75      0.75      1.06      0.01         0.01
  YS02163301YS02001633        1.90      1.90      1.92      0.01         0.01
  YS02163601YS02164001        1.89      1.89      1.93      0.09         0.01
  YS02164001YS02001641        1.89      1.89      1.89      1.38         1.33
  
  
  ***************
  Pumping Summary
  ***************
  
  ---------------------------------------------------------------------------------------------------------
                                                  Min       Avg       Max     Total     Power    % Time Off
                        Percent   Number of      Flow      Flow      Flow    Volume     Usage    Pump Curve
  Pump                 Utilized   Start-Ups       LPS       LPS       LPS  10^6 ltr     Kw-hr    Low   High
  ---------------------------------------------------------------------------------------------------------
  CC-R1                   33.77          25      0.00    683.00    683.00     6.643    126.35    0.0   20.5
  CC-R2                   28.87          20      0.00    683.00    683.00     5.680    109.22    0.0   14.5
  CC-S1                   38.04          16      0.00    200.00    200.00     2.191     11.44    0.0    0.0
  CC-S2                   39.22          20      0.00    200.00    200.00     2.259     11.90    0.0    0.0
  JK-R1                   10.17          20      0.00   1000.00   1000.00     2.928     28.86    0.0    0.0
  JK-R2                    7.69          21      0.00   1000.00   1000.00     2.216     19.11    0.0    0.0
  JK-S                    17.84          38      0.00    300.00    300.00     1.541     25.42    0.0    0.0
  

  Analysis begun on:  Fri Aug  4 09:50:52 2023
  Analysis ended on:  Fri Aug  4 09:50:57 2023
  Total elapsed time: 00:00:05