
  OWA STORM WATER MANAGEMENT MODEL - VERSION v5.2.3 (OWA 2023-06-06)
  ------------------------------------------------------------

  WARNING 04: minimum elevation drop used for Conduit WS02004404WS02004405
  WARNING 03: negative offset ignored for Link YS02001904YS02001907
  
  ****************
  Analysis Options
  ****************
  Flow Units ............... LPS
  Process Models:
    Rainfall/Runoff ........ YES
    RDII ................... NO
    Snowmelt ............... NO
    Groundwater ............ NO
    Flow Routing ........... YES
    Ponding Allowed ........ NO
    Water Quality .......... NO
  Infiltration Method ...... HORTON
  Flow Routing Method ...... DYNWAVE
  Surcharge Method ......... EXTRAN
  Starting Date ............ 08/28/2015 08:00:00
  Ending Date .............. 08/28/2015 16:00:00
  Antecedent Dry Days ...... 8.0
  Report Time Step ......... 00:01:00
  Wet Time Step ............ 00:01:00
  Dry Time Step ............ 00:01:00
  Routing Time Step ........ 30.00 sec
  Variable Time Step ....... YES
  Maximum Trials ........... 8
  Number of Threads ........ 2
  Head Tolerance ........... 0.001500 m
  
  
  **************************        Volume         Depth
  Runoff Quantity Continuity     hectare-m            mm
  **************************     ---------       -------
  Total Precipitation ......         1.645        49.583
  Evaporation Loss .........         0.000         0.000
  Infiltration Loss ........         0.094         2.846
  Surface Runoff ...........         1.518        45.758
  Final Storage ............         0.033         0.992
  Continuity Error (%) .....        -0.026
  
  
  **************************        Volume        Volume
  Flow Routing Continuity        hectare-m      10^6 ltr
  **************************     ---------     ---------
  Dry Weather Inflow .......         0.025         0.251
  Wet Weather Inflow .......         1.518        15.176
  Groundwater Inflow .......         0.000         0.000
  RDII Inflow ..............         0.000         0.000
  External Inflow ..........         0.083         0.834
  External Outflow .........         1.390        13.900
  Flooding Loss ............         0.327         3.273
  Evaporation Loss .........         0.000         0.000
  Exfiltration Loss ........         0.000         0.000
  Initial Stored Volume ....         0.243         2.431
  Final Stored Volume ......         0.182         1.819
  Continuity Error (%) .....        -1.611
  
  
  *************************
  Highest Continuity Errors
  *************************
  Node YS02001583 (-12.41%)
  Node YS02001884 (4.59%)
  Node WS02006256 (-2.81%)
  Node YS02001774 (1.61%)
  Node WS02006111 (-1.01%)
  
  
  ***************************
  Time-Step Critical Elements
  ***************************
  Link WS02004404WS02004405 (26.38%)
  Link WS02006238WS02006235 (25.07%)
  Link WS02006252WS02006251 (11.76%)
  Link YS02001791YS02001793 (8.63%)
  Link WS02006235WS02006234 (8.21%)
  
  
  ********************************
  Highest Flow Instability Indexes
  ********************************
  Link WS02006113WS02006111 (31)
  Link WS02006256WS02006235 (22)
  Link WS02004404WS02004405 (21)
  Link WS02006252WS02006251 (20)
  Link WS02006238WS02006235 (20)
  
  
  *********************************
  Most Frequent Nonconverging Nodes
  *********************************
  Node CC-1 (19.05%)
  Node CC-2 (19.05%)
  Node JK-1 (19.05%)
  Node JK-2 (19.05%)
  Node WSC (19.05%)
  
  
  *************************
  Routing Time Step Summary
  *************************
  Minimum Time Step           :     0.01 sec
  Average Time Step           :     3.16 sec
  Maximum Time Step           :    30.00 sec
  % of Time in Steady State   :     0.00
  Average Iterations per Step :     3.70
  % of Steps Not Converging   :    19.05
  Time Step Frequencies       :
     30.000 - 13.228 sec      :     0.01 %
     13.228 -  5.833 sec      :    14.90 %
      5.833 -  2.572 sec      :    36.43 %
      2.572 -  1.134 sec      :    30.36 %
      1.134 -  0.500 sec      :    18.30 %
  
  
  ***************************
  Subcatchment Runoff Summary
  ***************************
  
  ------------------------------------------------------------------------------------------------------------------------------
                            Total      Total      Total      Total     Imperv       Perv      Total       Total     Peak  Runoff
                           Precip      Runon       Evap      Infil     Runoff     Runoff     Runoff      Runoff   Runoff   Coeff
  Subcatchment                 mm         mm         mm         mm         mm         mm         mm    10^6 ltr      LPS
  ------------------------------------------------------------------------------------------------------------------------------
  sub60                     49.58       0.00       0.00       1.74      42.43       4.22      46.65        0.61   422.81   0.941
  sub61                     49.58       0.00       0.00       2.51      40.02       5.92      45.94        0.84   582.26   0.927
  sub62                     49.58       0.00       0.00       1.16      44.33       2.81      47.14        1.29   815.79   0.951
  sub63                     49.58       0.00       0.00       4.60      34.23       9.78      44.01        1.00   632.01   0.888
  sub64                     49.58       0.00       0.00       2.33      40.94       5.11      46.05        1.11   645.72   0.929
  sub65                     49.58       0.00       0.00       2.02      41.89       4.43      46.32        1.28   719.50   0.934
  sub66                     49.58       0.00       0.00       5.64      34.13       8.74      42.87        2.00   899.35   0.865
  sub67                     49.58       0.00       0.00       1.12      44.37       2.85      47.22        0.88   652.55   0.952
  sub68                     49.58       0.00       0.00       2.08      41.45       4.87      46.32        1.27   835.17   0.934
  sub69                     49.58       0.00       0.00       1.82      42.04       5.62      47.66        1.76   966.35   0.961
  sub70                     49.58       0.00       0.00       6.00      32.56      10.86      43.42        1.25   507.12   0.876
  sub71                     49.58       0.00       0.00       1.18      44.29       2.78      47.08        1.23   702.93   0.949
  sub72                     49.58       0.00       0.00       1.05      44.71       2.42      47.13        0.65   332.67   0.951
  
  
  ******************
  Node Depth Summary
  ******************
  
  ---------------------------------------------------------------------------------
                                 Average  Maximum  Maximum  Time of Max    Reported
                                   Depth    Depth      HGL   Occurrence   Max Depth
  Node                 Type       Meters   Meters   Meters  days hr:min      Meters
  ---------------------------------------------------------------------------------
  WS02003060           JUNCTION     0.20     0.38     5.32     0  02:53        0.38
  WS02003066           JUNCTION     0.17     0.30     5.85     0  02:52        0.30
  WS02003067           JUNCTION     0.47     0.70     6.02     0  02:52        0.70
  WS02003069           JUNCTION     0.23     0.43     5.01     0  02:53        0.43
  WS02003072           JUNCTION     0.29     0.50     4.87     0  02:54        0.50
  WS02003073           JUNCTION     0.16     0.30     4.36     0  02:55        0.30
  WS02004401           JUNCTION     0.56     0.87     6.87     0  02:49        0.87
  WS02004402           JUNCTION     0.59     0.90     6.86     0  02:51        0.90
  WS02004403           JUNCTION     0.62     0.92     6.85     0  02:50        0.92
  WS02004404           JUNCTION     0.69     1.02     6.87     0  02:50        1.00
  WS02004405           JUNCTION     0.68     0.97     6.82     0  02:50        0.96
  WS02004406           JUNCTION     0.70     0.96     6.79     0  02:50        0.96
  WS02004407           JUNCTION     0.15     0.30     6.61     0  02:50        0.30
  WS02004409           JUNCTION     0.34     0.67     6.44     0  02:51        0.67
  WS02004410           JUNCTION     0.37     0.68     6.40     0  02:51        0.68
  WS02004411           JUNCTION     0.39     0.69     6.37     0  02:51        0.69
  WS02004412           JUNCTION     0.42     0.70     6.34     0  02:52        0.70
  WS02004413           JUNCTION     0.58     0.86     6.33     0  02:52        0.86
  WS02006109           JUNCTION     0.59     1.12     7.74     0  03:16        1.09
  WS02006110           JUNCTION     0.60     1.12     7.70     0  02:10        1.07
  WS02006111           JUNCTION     0.15     0.90     7.60     0  00:00        0.40
  WS02006112           JUNCTION     0.70     2.68     8.56     0  00:00        1.14
  WS02006113           JUNCTION     0.23     1.40     8.29     0  00:00        0.46
  WS02006115           JUNCTION     0.43     1.65     7.79     0  00:00        0.86
  WS02006116           JUNCTION     0.52     1.06     7.10     0  00:00        0.85
  WS02006228           JUNCTION     0.58     1.12     7.77     0  03:26        1.09
  WS02006229           JUNCTION     0.55     1.13     7.82     0  03:26        1.07
  WS02006230           JUNCTION     0.54     1.28     8.02     0  02:10        1.17
  WS02006231           JUNCTION     0.36     1.03     8.16     0  03:10        0.92
  WS02006232           JUNCTION     0.48     2.18     9.22     0  01:54        1.13
  WS02006234           JUNCTION     0.41     1.69     8.85     0  03:40        1.51
  WS02006235           JUNCTION     0.45     1.73     8.90     0  03:40        1.73
  WS02006238           JUNCTION     0.47     1.77     8.92     0  02:25        1.77
  WS02006239           JUNCTION     0.44     1.72     8.93     0  03:40        1.67
  WS02006240           JUNCTION     0.41     1.61     8.90     0  02:25        1.60
  WS02006242           JUNCTION     0.48     1.55     8.82     0  02:25        1.55
  WS02006243           JUNCTION     0.41     1.47     8.89     0  03:26        1.47
  WS02006245           JUNCTION     0.42     1.38     8.87     0  03:26        1.38
  WS02006247           JUNCTION     0.43     1.30     8.80     0  03:26        1.30
  WS02006248           JUNCTION     0.40     1.10     8.69     0  02:05        1.10
  WS02006249           JUNCTION     0.43     1.09     8.69     0  01:56        1.09
  WS02006251           JUNCTION     0.43     1.50     9.17     0  01:56        1.13
  WS02006252           JUNCTION     0.29     1.50     9.74     0  01:50        0.71
  WS02006256           JUNCTION     0.93     2.35     9.28     0  00:05        2.35
  WSF200               JUNCTION     0.14     0.29     5.52     0  02:52        0.29
  YS02001580           JUNCTION     0.10     1.05     9.59     0  01:47        0.77
  YS02001583           JUNCTION     0.13     1.14     9.64     0  01:47        0.82
  YS02001586           JUNCTION     0.22     1.13     9.30     0  01:47        1.13
  YS02001590           JUNCTION     0.32     1.40     9.26     0  01:47        1.40
  YS02001593           JUNCTION     0.25     1.35     9.21     0  01:47        1.29
  YS02001596           JUNCTION     0.34     1.70     9.12     0  01:47        1.66
  YS02001600           JUNCTION     0.43     1.87     9.00     0  01:47        1.86
  YS02001601           JUNCTION     0.62     2.06     8.90     0  01:46        2.06
  YS02001602           JUNCTION     0.53     1.87     8.77     0  01:47        1.87
  YS02001605           JUNCTION     0.49     1.78     8.68     0  01:47        1.78
  YS02001607           JUNCTION     0.47     1.65     8.49     0  01:55        1.65
  YS02001610           JUNCTION     0.51     1.68     8.48     0  01:47        1.68
  YS02001613           JUNCTION     0.47     1.68     8.52     0  01:47        1.65
  YS02001616           JUNCTION     0.40     1.61     8.52     0  01:47        1.61
  YS02001619           JUNCTION     0.38     1.61     8.54     0  01:47        1.61
  YS02001622           JUNCTION     0.37     1.62     8.52     0  01:47        1.62
  YS02001625           JUNCTION     0.62     1.78     8.38     0  01:47        1.78
  YS02001629           JUNCTION     0.49     1.85     8.40     0  01:47        1.85
  YS02001633           JUNCTION     0.57     2.03     8.49     0  01:49        2.00
  YS02001641           JUNCTION     0.54     1.97     8.40     0  01:50        1.94
  YS02001644           JUNCTION     0.54     1.92     8.35     0  01:49        1.92
  YS02001647           JUNCTION     0.32     1.81     8.42     0  01:50        1.69
  YS02001649           JUNCTION     0.36     2.05     8.44     0  01:50        1.87
  YS02001652           JUNCTION     0.24     2.16     8.76     0  01:50        1.71
  YS02001655           JUNCTION     0.18     2.20     9.05     0  01:50        1.49
  YS02001658           JUNCTION     0.13     2.30     9.44     0  01:50        1.25
  YS02001661           JUNCTION     0.15     1.33     8.73     0  01:51        1.04
  YS02001664           JUNCTION     0.06     0.61     8.54     0  01:51        0.48
  YS02001745           JUNCTION     0.06     0.93     8.45     0  01:50        0.76
  YS02001748           JUNCTION     0.12     2.27     9.35     0  01:50        1.16
  YS02001751           JUNCTION     0.15     2.20     9.08     0  01:50        1.33
  YS02001754           JUNCTION     0.21     2.20     8.81     0  01:50        1.57
  YS02001757           JUNCTION     0.37     2.19     8.45     0  01:50        1.88
  YS02001759           JUNCTION     0.31     2.17     8.53     0  01:50        1.87
  YS02001762           JUNCTION     0.30     2.15     8.55     0  01:50        1.86
  YS02001765           JUNCTION     0.28     2.10     8.55     0  01:50        1.84
  YS02001767           JUNCTION     0.28     2.03     8.52     0  01:50        1.84
  YS02001770           JUNCTION     0.30     1.95     8.45     0  01:50        1.88
  YS02001774           JUNCTION     0.36     2.01     8.43     0  01:50        1.94
  YS02001779           JUNCTION     0.19     1.68     8.37     0  01:49        1.68
  YS02001783           JUNCTION     0.27     1.33     7.47     0  01:48        1.30
  YS02001784           JUNCTION     0.28     1.19     7.25     0  01:48        1.18
  YS02001786           JUNCTION     0.24     0.99     7.02     0  01:48        0.87
  YS02001788           JUNCTION     0.17     0.62     6.60     0  01:49        0.62
  YS02001790           JUNCTION     0.20     0.72     6.37     0  01:52        0.71
  YS02001791           JUNCTION     0.13     0.44     5.91     0  01:59        0.43
  YS02001793           JUNCTION     0.07     0.30     5.14     0  01:54        0.30
  YS02001882           JUNCTION     0.34     1.83     8.55     0  01:47        1.83
  YS02001884           JUNCTION     0.43     1.93     8.55     0  01:47        1.92
  YS02001887           JUNCTION     0.51     1.92     8.46     0  01:48        1.92
  YS02001890           JUNCTION     0.54     1.81     8.32     0  01:47        1.81
  YS02001895           JUNCTION     0.31     1.74     8.49     0  01:47        1.56
  YS02001898           JUNCTION     0.32     1.68     8.41     0  01:47        1.57
  YS02001901           JUNCTION     0.43     1.76     8.36     0  01:48        1.67
  YS02001904           JUNCTION     0.41     1.68     8.31     0  01:48        1.64
  YS02001907           JUNCTION     0.73     1.96     8.25     0  01:48        1.96
  YS02001910           JUNCTION     0.52     2.03     8.53     0  01:49        1.84
  YS02001915           JUNCTION     0.34     1.98     8.70     0  01:49        1.71
  YS02001918           JUNCTION     0.18     1.81     8.88     0  01:49        1.40
  YS02001920           JUNCTION     0.26     2.10     9.11     0  01:49        1.48
  YS02001923           JUNCTION     0.14     2.03     9.29     0  01:49        1.24
  YS02001926           JUNCTION     0.18     1.90     9.35     0  01:49        1.07
  YS02001929           JUNCTION     0.10     1.78     9.47     0  01:49        0.84
  YS02006553           JUNCTION     0.73     2.08     8.36     0  01:49        2.08
  YS02006556           JUNCTION     0.70     2.14     8.45     0  01:49        2.14
  YS02006558           JUNCTION     0.74     2.21     8.48     0  01:49        2.21
  YS02006561           JUNCTION     0.17     1.03     7.69     0  01:48        0.89
  YS02163301           JUNCTION     0.52     1.93     8.44     0  01:49        1.91
  YS02163601           JUNCTION     0.60     2.05     8.45     0  01:50        2.01
  YS02164001           JUNCTION     0.53     1.97     8.43     0  01:50        1.93
  CC-1                 OUTFALL      0.00     0.00     0.00     0  00:00        0.00
  CC-2                 OUTFALL      0.00     0.00     0.00     0  00:00        0.00
  JK-1                 OUTFALL      0.00     0.00     0.00     0  00:00        0.00
  JK-2                 OUTFALL      0.00     0.00     0.00     0  00:00        0.00
  WSC                  OUTFALL      0.16     0.30     0.97     0  02:55        0.30
  CC-storage           STORAGE      0.76     1.44     6.94     0  02:17        1.44
  JK-storage           STORAGE      1.55     4.24     5.04     0  01:53        4.23
  
  
  *******************
  Node Inflow Summary
  *******************
  
  -------------------------------------------------------------------------------------------------
                                  Maximum  Maximum                  Lateral       Total        Flow
                                  Lateral    Total  Time of Max      Inflow      Inflow     Balance
                                   Inflow   Inflow   Occurrence      Volume      Volume       Error
  Node                 Type           LPS      LPS  days hr:min    10^6 ltr    10^6 ltr     Percent
  -------------------------------------------------------------------------------------------------
  WS02003060           JUNCTION     16.53   554.40     0  02:52       0.476        4.28       0.062
  WS02003066           JUNCTION      0.00   537.50     0  02:52           0         3.8       0.039
  WS02003067           JUNCTION      0.00   537.37     0  02:52           0        3.81       0.113
  WS02003069           JUNCTION      0.32   554.52     0  02:53     0.00922        4.28       0.100
  WS02003072           JUNCTION      0.00   553.99     0  02:53           0        4.28       0.174
  WS02003073           JUNCTION      1.82   555.47     0  02:54      0.0524        4.32       0.142
  WS02004401           JUNCTION      0.00  1677.78     0  00:00           0        3.92       0.296
  WS02004402           JUNCTION      0.00  1171.33     0  00:01           0         3.9       0.291
  WS02004403           JUNCTION      0.00   884.75     0  00:01           0        3.89       0.280
  WS02004404           JUNCTION      0.16   832.59     0  00:01     0.00467        3.88       0.206
  WS02004405           JUNCTION      0.04   776.49     0  00:01      0.0011        3.88       0.311
  WS02004406           JUNCTION      0.00   711.76     0  00:02           0        3.86       0.567
  WS02004407           JUNCTION      0.00   540.06     0  02:50           0        3.84       0.031
  WS02004409           JUNCTION      0.00   539.58     0  02:50           0        3.84       0.076
  WS02004410           JUNCTION      0.00   539.00     0  02:51           0        3.84       0.123
  WS02004411           JUNCTION      0.00   538.39     0  02:51           0        3.83       0.158
  WS02004412           JUNCTION      0.00   538.05     0  02:51           0        3.83       0.203
  WS02004413           JUNCTION      0.00   537.75     0  02:52           0        3.82       0.364
  WS02006109           JUNCTION      1.23  1308.01     0  00:00      0.0354        3.85       0.287
  WS02006110           JUNCTION      0.00   564.63     0  03:26           0        3.82      -0.936
  WS02006111           JUNCTION      0.00  1176.04     0  00:00           0        3.84      -0.996
  WS02006112           JUNCTION      0.00  2307.30     0  00:00           0        3.89      -0.024
  WS02006113           JUNCTION      0.00   573.00     0  03:26           0        3.81      -1.287
  WS02006115           JUNCTION      0.00   899.27     0  00:00           0        3.86      -0.828
  WS02006116           JUNCTION      0.00  1098.16     0  00:01           0        3.89      -0.634
  WS02006228           JUNCTION      0.00   556.64     0  03:26           0        3.79       0.159
  WS02006229           JUNCTION      0.00   552.74     0  03:26           0        3.78       0.232
  WS02006230           JUNCTION     10.28   588.73     0  02:55       0.296        3.76       0.035
  WS02006231           JUNCTION      0.00   578.85     0  03:10           0        3.46      -0.017
  WS02006232           JUNCTION      0.00   578.00     0  03:10           0        3.46       0.225
  WS02006234           JUNCTION      0.00   573.32     0  03:10           0        3.45      -0.414
  WS02006235           JUNCTION      0.00   565.85     0  03:10           0        3.57       0.463
  WS02006238           JUNCTION      0.00   424.73     0  02:15           0        2.82      -0.089
  WS02006239           JUNCTION      0.00   423.30     0  02:15           0        2.74       0.013
  WS02006240           JUNCTION      0.00   420.81     0  03:02           0         2.7       0.019
  WS02006242           JUNCTION      0.00   420.93     0  03:02           0        2.69       0.094
  WS02006243           JUNCTION      0.00   421.41     0  03:31           0        2.67      -0.237
  WS02006245           JUNCTION      0.00   422.80     0  03:31           0        2.69       0.533
  WS02006247           JUNCTION      0.00   422.56     0  03:31           0        2.69       0.000
  WS02006248           JUNCTION      0.00   423.36     0  03:31           0        2.68      -0.111
  WS02006249           JUNCTION      0.00   442.76     0  00:20           0        2.88       0.802
  WS02006251           JUNCTION      0.08   408.28     0  01:56     0.00222        2.88       0.095
  WS02006252           JUNCTION      0.00   400.00     0  00:20           0        2.86      -0.727
  WS02006256           JUNCTION      0.00   300.00     0  00:05           0        1.12      -2.729
  WSF200               JUNCTION      0.00   537.59     0  02:52           0         3.8       0.013
  YS02001580           JUNCTION      0.00   177.26     0  01:47           0     0.00436      -5.231
  YS02001583           JUNCTION      0.00   259.73     0  01:47           0      0.0146     -11.040
  YS02001586           JUNCTION    507.12   507.12     0  01:54        1.25        1.27       0.153
  YS02001590           JUNCTION      0.00   319.25     0  02:06           0        1.11      -0.053
  YS02001593           JUNCTION      0.00   320.14     0  02:06           0        1.11       0.008
  YS02001596           JUNCTION      0.00   318.13     0  01:58           0        1.11       0.002
  YS02001600           JUNCTION      0.00   318.06     0  01:58           0        1.11      -0.005
  YS02001601           JUNCTION    966.35  1284.08     0  01:52        1.76        2.88       0.025
  YS02001602           JUNCTION      0.00   576.50     0  01:47           0        1.98       0.020
  YS02001605           JUNCTION      0.00   576.51     0  01:47           0         1.9       0.028
  YS02001607           JUNCTION      0.00   576.32     0  01:46           0         1.9       0.093
  YS02001610           JUNCTION      0.00   539.31     0  01:47           0        1.91       0.123
  YS02001613           JUNCTION      0.00   517.62     0  01:47           0        1.61       0.092
  YS02001616           JUNCTION      0.00   509.67     0  01:47           0        1.61       0.011
  YS02001619           JUNCTION    899.35   974.21     0  01:47           2        3.59      -0.006
  YS02001622           JUNCTION      0.00   948.59     0  01:47           0        3.58      -0.013
  YS02001625           JUNCTION      0.00  1020.70     0  01:53           0         3.6       0.248
  YS02001629           JUNCTION      0.00   939.59     0  01:47           0        3.09       0.010
  YS02001633           JUNCTION    719.70  1424.96     0  01:48        1.28        4.32       0.083
  YS02001641           JUNCTION      0.00  1421.74     0  01:48           0        4.29       0.069
  YS02001644           JUNCTION    645.76  1934.80     0  01:48        1.11        5.39       0.061
  YS02001647           JUNCTION      0.00  1935.96     0  01:48           0        5.34       0.012
  YS02001649           JUNCTION      0.00  2202.93     0  01:49           0        6.35       0.005
  YS02001652           JUNCTION      0.00   790.58     0  01:51           0           1      -0.194
  YS02001655           JUNCTION      0.15   790.28     0  01:51     0.00443           1      -0.065
  YS02001658           JUNCTION      0.00   788.39     0  01:51           0       0.999      -0.067
  YS02001661           JUNCTION      0.00   807.73     0  01:51           0       0.999       0.015
  YS02001664           JUNCTION    632.01   632.01     0  01:51       0.999       0.999      -0.012
  YS02001745           JUNCTION    422.81   633.98     0  01:50       0.613       0.615       0.297
  YS02001748           JUNCTION      0.04   710.91     0  01:50      0.0013       0.618      -0.486
  YS02001751           JUNCTION      0.01   567.13     0  01:51    0.000317       0.626       0.104
  YS02001754           JUNCTION      0.26   569.67     0  01:51     0.00749       0.639      -0.248
  YS02001757           JUNCTION      0.00  3490.61     0  01:51           0        9.13       0.061
  YS02001759           JUNCTION    582.30  1411.32     0  01:50       0.844        2.14      -0.010
  YS02001762           JUNCTION      0.00   825.63     0  01:50           0         1.3       0.004
  YS02001765           JUNCTION      0.00   821.98     0  01:50           0         1.3       0.004
  YS02001767           JUNCTION      0.54   818.90     0  01:50      0.0154         1.3       0.004
  YS02001770           JUNCTION    815.94   815.94     0  01:51         1.3        1.34      -0.012
  YS02001774           JUNCTION      0.00   539.58     0  01:49           0      0.0716       1.637
  YS02001779           JUNCTION      0.01   545.69     0  01:49    0.000144      0.0292      -3.700
  YS02001783           JUNCTION      0.00  1160.28     0  01:49           0        3.41       0.006
  YS02001784           JUNCTION      1.06  1160.99     0  01:49      0.0305        3.44       0.016
  YS02001786           JUNCTION      0.06  1162.82     0  01:49     0.00162        3.44       0.020
  YS02001788           JUNCTION      0.07  1167.70     0  01:49     0.00204        3.44       0.009
  YS02001790           JUNCTION      0.15  1168.19     0  01:50     0.00446        3.45       0.020
  YS02001791           JUNCTION      0.00  1280.28     0  01:52           0        3.45      -0.022
  YS02001793           JUNCTION      0.00  1237.59     0  01:54           0        3.45       0.007
  YS02001882           JUNCTION      0.00    77.17     0  01:47           0      0.0129       4.150
  YS02001884           JUNCTION      0.00   146.85     0  01:47           0      0.0488       4.816
  YS02001887           JUNCTION    653.00   653.26     0  01:50       0.891       0.925       0.485
  YS02001890           JUNCTION      0.00   653.33     0  01:50           0       0.884       0.576
  YS02001895           JUNCTION      0.00   611.90     0  01:47           0       0.853       0.204
  YS02001898           JUNCTION      0.00   603.15     0  01:48           0       0.851       0.029
  YS02001901           JUNCTION      0.00   608.24     0  01:48           0       0.854       0.371
  YS02001904           JUNCTION      0.00   608.34     0  01:48           0       0.859       0.357
  YS02001907           JUNCTION      0.00  1653.17     0  01:50           0        2.82       0.642
  YS02001910           JUNCTION      0.00  1126.94     0  01:50           0        1.97       0.372
  YS02001915           JUNCTION    702.95  1126.84     0  01:50        1.23        2.02       0.076
  YS02001918           JUNCTION      0.00   722.80     0  01:48           0       0.817       0.038
  YS02001920           JUNCTION      2.87   697.26     0  01:48      0.0827       0.793       0.092
  YS02001923           JUNCTION      0.04   955.96     0  01:48     0.00109       0.692      -0.122
  YS02001926           JUNCTION      0.05  1184.19     0  01:48      0.0015        0.67      -0.478
  YS02001929           JUNCTION    332.67  1103.44     0  01:49       0.648       0.655      -0.218
  YS02006553           JUNCTION      0.00   808.95     0  02:06           0        2.16       0.538
  YS02006556           JUNCTION      0.00   809.17     0  02:06           0        2.17       0.378
  YS02006558           JUNCTION    836.05  1168.86     0  01:48         1.3        3.44       0.103
  YS02006561           JUNCTION      0.00  1171.85     0  01:48           0        3.41      -0.005
  YS02163301           JUNCTION      0.00   878.43     0  01:48           0        3.08       0.051
  YS02163601           JUNCTION      0.11  1424.57     0  01:48     0.00317        4.29       0.118
  YS02164001           JUNCTION      0.00  1423.69     0  01:48           0        4.29       0.065
  CC-1                 OUTFALL       0.00   683.00     0  00:05           0        4.43       0.000
  CC-2                 OUTFALL       0.00   683.00     0  00:05           0        2.69       0.000
  JK-1                 OUTFALL       0.00  1000.00     0  00:05           0        1.44       0.000
  JK-2                 OUTFALL       0.00  1000.00     0  01:45           0        1.02       0.000
  WSC                  OUTFALL       0.00   555.01     0  02:55           0        4.32       0.000
  CC-storage           STORAGE       0.00  3488.66     0  01:51           0        11.3      -0.274
  JK-storage           STORAGE       0.00  1234.98     0  01:51           0         3.6      -0.483
  
  
  **********************
  Node Surcharge Summary
  **********************
  
  Surcharging occurs when water rises above the top of the highest conduit.
  ---------------------------------------------------------------------
                                               Max. Height   Min. Depth
                                   Hours       Above Crown    Below Rim
  Node                 Type      Surcharged         Meters       Meters
  ---------------------------------------------------------------------
  WS02004404           JUNCTION        0.01          0.017        2.763
  WS02006109           JUNCTION        1.77          0.300        1.520
  WS02006110           JUNCTION        0.56          0.209        1.641
  WS02006111           JUNCTION        0.01          0.087        1.783
  WS02006112           JUNCTION        0.66          1.680        0.000
  WS02006113           JUNCTION        0.01          0.600        1.330
  WS02006115           JUNCTION        0.01          0.642        1.608
  WS02006116           JUNCTION        0.01          0.000        2.290
  WS02006228           JUNCTION        1.76          0.287        1.913
  WS02006229           JUNCTION        1.77          0.331        2.119
  WS02006230           JUNCTION        0.57          0.196        1.374
  WS02006231           JUNCTION        0.68          0.325        1.205
  WS02006232           JUNCTION        1.79          1.480        0.000
  WS02006234           JUNCTION        1.14          0.975        0.265
  WS02006235           JUNCTION        1.73          1.024        0.266
  WS02006238           JUNCTION        1.77          1.053        0.377
  WS02006239           JUNCTION        1.75          0.979        0.311
  WS02006240           JUNCTION        1.77          0.900        0.490
  WS02006242           JUNCTION        1.78          0.820        0.000
  WS02006243           JUNCTION        1.76          0.764        0.006
  WS02006245           JUNCTION        1.76          0.670        0.180
  WS02006247           JUNCTION        1.76          0.594        0.166
  WS02006248           JUNCTION        1.75          0.380        0.000
  WS02006249           JUNCTION        1.74          0.390        0.000
  WS02006251           JUNCTION        0.75          0.467        0.713
  WS02006252           JUNCTION        1.93          1.100        0.000
  WS02006256           JUNCTION        6.89          2.050        0.000
  YS02001580           JUNCTION        0.45          0.450        0.000
  YS02001583           JUNCTION        0.46          0.500        0.000
  YS02001586           JUNCTION        0.59          0.510        0.000
  YS02001590           JUNCTION        0.66          0.750        0.000
  YS02001593           JUNCTION        0.65          0.729        0.111
  YS02001596           JUNCTION        0.75          0.968        0.102
  YS02001600           JUNCTION        0.87          1.190        0.000
  YS02001601           JUNCTION        1.25          1.440        0.000
  YS02001602           JUNCTION        1.11          1.270        0.000
  YS02001605           JUNCTION        1.06          1.180        0.000
  YS02001607           JUNCTION        0.61          0.645        0.035
  YS02001610           JUNCTION        0.64          0.680        0.000
  YS02001613           JUNCTION        0.61          0.679        0.021
  YS02001616           JUNCTION        0.57          0.610        0.000
  YS02001619           JUNCTION        0.56          0.610        0.000
  YS02001622           JUNCTION        0.55          0.620        0.000
  YS02001625           JUNCTION        0.71          0.780        0.000
  YS02001629           JUNCTION        0.50          0.470        0.000
  YS02001633           JUNCTION        0.72          1.011        0.049
  YS02001641           JUNCTION        0.66          0.966        0.134
  YS02001644           JUNCTION        0.63          0.920        0.000
  YS02001647           JUNCTION        0.44          0.806        0.094
  YS02001649           JUNCTION        0.54          1.050        0.000
  YS02001652           JUNCTION        0.37          1.130        0.000
  YS02001655           JUNCTION        0.21          1.200        0.000
  YS02001658           JUNCTION        0.07          1.300        0.000
  YS02001661           JUNCTION        0.01          0.258        1.132
  YS02001748           JUNCTION        0.01          1.190        0.000
  YS02001751           JUNCTION        0.11          1.200        0.000
  YS02001754           JUNCTION        0.23          1.150        0.000
  YS02001757           JUNCTION        0.59          1.192        0.018
  YS02001759           JUNCTION        0.50          1.168        0.042
  YS02001762           JUNCTION        0.47          1.150        0.000
  YS02001765           JUNCTION        0.43          1.100        0.000
  YS02001767           JUNCTION        0.40          1.030        0.000
  YS02001770           JUNCTION        0.38          0.920        0.000
  YS02001774           JUNCTION        0.45          1.006        0.044
  YS02001779           JUNCTION        0.23          0.680        0.000
  YS02001783           JUNCTION        0.44          0.526        1.074
  YS02001784           JUNCTION        0.42          0.385        1.105
  YS02001786           JUNCTION        0.32          0.194        1.236
  YS02001882           JUNCTION        0.39          0.830        0.000
  YS02001884           JUNCTION        0.40          0.870        0.000
  YS02001887           JUNCTION        0.43          0.871        0.079
  YS02001890           JUNCTION        0.44          0.760        0.000
  YS02001895           JUNCTION        0.38          0.739        0.011
  YS02001898           JUNCTION        0.37          0.648        0.092
  YS02001901           JUNCTION        0.42          0.756        0.114
  YS02001904           JUNCTION        0.41          0.683        0.167
  YS02001907           JUNCTION        0.61          0.950        0.000
  YS02001910           JUNCTION        0.47          1.027        0.073
  YS02001915           JUNCTION        0.39          0.979        0.021
  YS02001918           JUNCTION        0.31          0.810        0.000
  YS02001920           JUNCTION        0.33          1.102        0.038
  YS02001923           JUNCTION        0.01          0.820        0.000
  YS02001926           JUNCTION        0.02          0.900        0.000
  YS02001929           JUNCTION        0.01          0.780        0.000
  YS02006553           JUNCTION        0.62          1.081        0.109
  YS02006556           JUNCTION        0.53          1.099        0.251
  YS02006558           JUNCTION        0.53          1.114        0.286
  YS02006561           JUNCTION        0.28          0.226        0.924
  YS02163301           JUNCTION        0.71          0.927        0.103
  YS02163601           JUNCTION        0.75          1.053        0.027
  YS02164001           JUNCTION        0.67          0.972        0.128
  
  
  *********************
  Node Flooding Summary
  *********************
  
  Flooding refers to all water that overflows a node, whether it ponds or not.
  --------------------------------------------------------------------------
                                                             Total   Maximum
                                 Maximum   Time of Max       Flood    Ponded
                        Hours       Rate    Occurrence      Volume     Depth
  Node                 Flooded       LPS   days hr:min    10^6 ltr    Meters
  --------------------------------------------------------------------------
  WS02006112              0.01   1547.89      0  00:00       0.047     0.000
  WS02006232              0.01     60.70      0  01:54       0.000     0.000
  WS02006242              0.01      5.33      0  02:25       0.000     0.000
  WS02006248              0.01     15.41      0  03:26       0.000     0.000
  WS02006249              0.71    102.53      0  01:56       0.168     0.000
  WS02006252              0.01      0.86      0  01:50       0.000     0.000
  WS02006256              1.04    290.34      0  03:40       0.356     0.000
  YS02001580              0.01    107.35      0  01:47       0.001     0.000
  YS02001583              0.01    153.18      0  01:47       0.000     0.000
  YS02001586              0.35    189.52      0  01:54       0.141     0.000
  YS02001590              0.01      0.72      0  01:47       0.000     0.000
  YS02001600              0.01      4.61      0  01:47       0.000     0.000
  YS02001601              0.52    886.12      0  01:52       0.895     0.000
  YS02001602              0.41     62.01      0  01:55       0.084     0.000
  YS02001605              0.01      2.41      0  01:47       0.000     0.000
  YS02001610              0.36    397.22      0  01:54       0.314     0.000
  YS02001616              0.01     40.70      0  01:47       0.000     0.000
  YS02001619              0.01     96.10      0  01:47       0.000     0.000
  YS02001622              0.01    211.05      0  01:47       0.000     0.000
  YS02001625              0.33   1020.28      0  01:53       0.534     0.000
  YS02001629              0.07    327.80      0  01:47       0.021     0.000
  YS02001644              0.05    383.95      0  01:51       0.041     0.000
  YS02001649              0.01     14.30      0  01:50       0.000     0.000
  YS02001652              0.01     48.17      0  01:50       0.000     0.000
  YS02001655              0.01     78.73      0  01:50       0.000     0.000
  YS02001658              0.01    437.46      0  01:50       0.000     0.000
  YS02001748              0.01    442.76      0  01:50       0.000     0.000
  YS02001751              0.01    251.21      0  01:50       0.000     0.000
  YS02001754              0.01     86.18      0  01:50       0.000     0.000
  YS02001762              0.01      6.52      0  01:50       0.000     0.000
  YS02001765              0.01      4.95      0  01:50       0.000     0.000
  YS02001767              0.01      2.81      0  01:50       0.000     0.000
  YS02001770              0.01     14.19      0  01:50       0.000     0.000
  YS02001779              0.04    494.81      0  01:49       0.012     0.000
  YS02001882              0.01     24.77      0  01:48       0.000     0.000
  YS02001884              0.01     14.76      0  01:47       0.000     0.000
  YS02001890              0.09    125.97      0  01:50       0.026     0.000
  YS02001907              0.26   1326.52      0  01:50       0.643     0.000
  YS02001918              0.01    213.22      0  01:49       0.003     0.000
  YS02001923              0.01    221.30      0  01:49       0.001     0.000
  YS02001926              0.01    310.91      0  01:49       0.003     0.000
  YS02001929              0.01    832.92      0  01:49       0.004     0.000
  
  
  **********************
  Storage Volume Summary
  **********************
  
  ------------------------------------------------------------------------------------------------
                         Average    Avg   Evap  Exfil     Maximum    Max    Time of Max    Maximum
                          Volume   Pcnt   Pcnt   Pcnt      Volume   Pcnt     Occurrence    Outflow
  Storage Unit           1000 m³   Full   Loss   Loss     1000 m³   Full    days hr:min        LPS
  ------------------------------------------------------------------------------------------------
  CC-storage               2.112   33.0    0.0    0.0       4.023   62.8       0  02:17    1766.00
  JK-storage               0.078   26.7    0.0    0.0       0.213   73.1       0  01:53    2300.00
  
  
  ***********************
  Outfall Loading Summary
  ***********************
  
  -----------------------------------------------------------
                         Flow       Avg       Max       Total
                         Freq      Flow      Flow      Volume
  Outfall Node           Pcnt       LPS       LPS    10^6 ltr
  -----------------------------------------------------------
  CC-1                  35.09    683.00    683.00       4.434
  CC-2                  24.02    683.00    683.00       2.691
  JK-1                   9.50   1000.00   1000.00       1.437
  JK-2                   6.75   1000.00   1000.00       1.022
  WSC                   99.99    210.34    555.01       4.317
  -----------------------------------------------------------
  System                35.07   3576.34   2954.54      13.900
  
  
  ********************
  Link Flow Summary
  ********************
  
  -----------------------------------------------------------------------------
                                 Maximum  Time of Max   Maximum    Max/    Max/
                                  |Flow|   Occurrence   |Veloc|    Full    Full
  Link                 Type          LPS  days hr:min     m/sec    Flow   Depth
  -----------------------------------------------------------------------------
  1                    CONDUIT    555.01     0  02:55      2.83    0.19    0.30
  WS02003060WS02003069 CONDUIT    554.20     0  02:53      1.64    0.22    0.34
  WS02003066WSF200     CONDUIT    537.59     0  02:52      2.85    0.09    0.22
  WS02003067WS02003066 CONDUIT    537.50     0  02:52      1.21    0.17    0.42
  WS02003069WS02003072 CONDUIT    553.99     0  02:53      1.37    0.27    0.39
  WS02003072WS02003073 CONDUIT    553.64     0  02:54      1.44    1.20    0.37
  WS02004401WS02004402 CONDUIT   1171.33     0  00:01      2.51    1.41    0.89
  WS02004402WS02004403 CONDUIT    884.75     0  00:01      2.16    1.27    0.91
  WS02004403WS02004404 CONDUIT    832.43     0  00:01      1.96    0.60    0.96
  WS02004404WS02004405 CONDUIT    776.45     0  00:01      2.26    7.61    0.98
  WS02004405WS02004406 CONDUIT    711.76     0  00:02      2.15    1.40    0.96
  WS02004406WS02004407 CONDUIT    540.06     0  02:50      1.04    0.24    0.63
  WS02004407WS02004409 CONDUIT    539.58     0  02:50      1.95    0.19    0.48
  WS02004409WS02004410 CONDUIT    539.00     0  02:51      1.31    0.70    0.67
  WS02004410WS02004411 CONDUIT    538.39     0  02:51      1.19    0.74    0.69
  WS02004411WS02004412 CONDUIT    538.05     0  02:51      1.08    0.76    0.69
  WS02004412WS02004413 CONDUIT    537.75     0  02:52      1.10    0.36    0.78
  WS02004413WS02003067 CONDUIT    537.37     0  02:52      1.11    0.23    0.59
  WS02006109WS02006110 CONDUIT   1306.78     0  00:00      3.14    2.51    1.00
  WS02006110WS02006113 CONDUIT    573.00     0  03:26      1.37    0.52    1.00
  WS02006111WS02006112 CONDUIT   2307.30     0  00:00      9.18    1.10    0.91
  WS02006112WS02006115 CONDUIT    899.27     0  00:00      1.16    0.53    1.00
  WS02006113WS02006111 CONDUIT   1176.04     0  00:00      2.47    1.41    1.00
  WS02006115WS02006116 CONDUIT   1098.16     0  00:01      1.72    1.41    1.00
  WS02006116WS02004401 CONDUIT   1677.78     0  00:00      2.92    2.31    0.86
  WS02006228WS02006109 CONDUIT    560.98     0  03:26      1.40    2.45    1.00
  WS02006229WS02006228 CONDUIT    556.64     0  03:26      1.24    1.84    1.00
  WS02006230WS02006229 CONDUIT    552.74     0  03:26      1.44   12.30    1.00
  WS02006231WS02006230 CONDUIT    578.45     0  02:55      1.56    8.77    1.00
  WS02006232WS02006231 CONDUIT    578.85     0  03:10      1.51    1.21    1.00
  WS02006234WS02006232 CONDUIT    578.00     0  03:10      1.50    1.17    1.00
  WS02006235WS02006234 CONDUIT    573.32     0  03:10      1.49    6.05    1.00
  WS02006238WS02006235 CONDUIT    426.48     0  02:15      1.45    0.95    1.00
  WS02006239WS02006238 CONDUIT    424.73     0  02:15      1.10    1.36    1.00
  WS02006240WS02006239 CONDUIT    423.30     0  02:15      1.10    1.33    1.00
  WS02006242WS02006240 CONDUIT    420.81     0  03:02      1.09    1.67    1.00
  WS02006243WS02006242 CONDUIT    420.93     0  03:02      1.31    0.90    1.00
  WS02006245WS02006243 CONDUIT    421.41     0  03:31      1.37    1.25    1.00
  WS02006247WS02006245 CONDUIT    422.80     0  03:31      1.39    3.35    1.00
  WS02006248WS02006247 CONDUIT    422.56     0  03:31      1.45    0.92    1.00
  WS02006249WS02006248 CONDUIT    423.36     0  03:31      1.40    2.32    1.00
  WS02006251WS02006249 CONDUIT    442.76     0  00:20      1.93    1.28    1.00
  WS02006252WS02006251 CONDUIT    408.20     0  01:56     21.53    1.50    1.00
  WS02006256WS02006235 CONDUIT    288.77     0  00:05      4.22    3.06    1.00
  WSF200WS02003060     CONDUIT    537.87     0  02:52      2.06    0.12    0.28
  YS02001580YS02001583 CONDUIT    177.26     0  01:47      0.90    0.69    1.00
  YS02001583YS02001586 CONDUIT    211.09     0  01:47      0.95    0.32    1.00
  YS02001586YS02001590 CONDUIT    319.25     0  02:06      1.28    0.56    1.00
  YS02001590YS02001593 CONDUIT    320.14     0  02:06      1.13    2.01    1.00
  YS02001593YS02001596 CONDUIT    318.13     0  01:58      1.74    0.50    1.00
  YS02001596YS02001600 CONDUIT    318.06     0  01:58      1.20    0.62    1.00
  YS02001600YS02001601 CONDUIT    318.29     0  02:06      1.13    0.55    1.00
  YS02001601YS02001602 CONDUIT    576.50     0  01:47      2.04    2.08    1.00
  YS02001602YS02001605 CONDUIT    576.51     0  01:47      2.04   12.20    1.00
  YS02001605YS02001607 CONDUIT    576.32     0  01:46      2.04    3.16    1.00
  YS02001607YS02001610 CONDUIT    539.31     0  01:47      0.71    0.51    1.00
  YS02001610YS02001613 CONDUIT    517.62     0  01:47      0.67    0.60    1.00
  YS02001613YS02001616 CONDUIT    509.67     0  01:47      0.66    0.44    1.00
  YS02001616YS02001619 CONDUIT    486.32     0  01:47      0.67    0.84    1.00
  YS02001619YS02001622 CONDUIT    948.59     0  01:47      1.27    1.40    1.00
  YS02001622YS02001625 CONDUIT    938.39     0  01:47      1.19    0.50    1.00
  YS02001625YS02001629 CONDUIT    939.59     0  01:47      1.20    0.45    1.00
  YS02001629YS02163301 CONDUIT    878.43     0  01:48      1.12    1.08    1.00
  YS02001633YS02163601 CONDUIT   1424.46     0  01:48      1.81    1.50    1.00
  YS02001641YS02001644 CONDUIT   1420.45     0  01:48      1.81    4.59    1.00
  YS02001644YS02001647 CONDUIT   1935.96     0  01:48      2.46    1.14    1.00
  YS02001647YS02001649 CONDUIT   1938.46     0  01:48      2.47    1.02    1.00
  YS02001649YS02001757 CONDUIT   2207.10     0  01:49      2.81    1.34    1.00
  YS02001652YS02001649 CONDUIT    791.29     0  01:51      1.01    0.39    1.00
  YS02001655YS02001652 CONDUIT    790.58     0  01:51      1.49    0.38    1.00
  YS02001658YS02001655 CONDUIT    790.13     0  01:51      2.06    0.34    1.00
  YS02001661YS02001658 CONDUIT    788.39     0  01:51      2.46    0.31    1.00
  YS02001664YS02001661 CONDUIT    807.73     0  01:51      2.48    0.25    0.80
  YS02001745YS02001748 CONDUIT    710.87     0  01:50      2.40    0.27    0.96
  YS02001748YS02001751 CONDUIT    567.12     0  01:51      1.92    0.29    1.00
  YS02001751YS02001754 CONDUIT    569.41     0  01:51      1.58    0.27    1.00
  YS02001754YS02001757 CONDUIT    571.68     0  01:51      0.73    0.23    1.00
  YS02001757CaochengTiaoxuchi CONDUIT   3488.66     0  01:51      4.65    1.51    1.00
  YS02001759YS02001757 CONDUIT   1413.60     0  01:50      1.80    1.00    1.00
  YS02001762YS02001759 CONDUIT    829.10     0  01:50      1.06    0.96    1.00
  YS02001765YS02001762 CONDUIT    825.63     0  01:50      1.05    0.77    1.00
  YS02001767YS02001765 CONDUIT    821.98     0  01:50      1.05    1.03    1.00
  YS02001770YS02001767 CONDUIT    818.36     0  01:50      1.04    3.24    1.00
  YS02001774YS02001770 CONDUIT    539.58     0  01:49      0.69    0.34    1.00
  YS02001779YS02001774 CONDUIT    545.69     0  01:49      0.70    0.27    1.00
  YS02001783YS02001784 CONDUIT   1159.93     0  01:49      2.31    1.60    1.00
  YS02001784YS02001785 CONDUIT   1162.77     0  01:49      2.31    2.71    1.00
  YS02001786YS02001788 CONDUIT   1167.63     0  01:49      2.49    2.25    0.89
  YS02001788YS02001790 CONDUIT   1168.03     0  01:50      2.72    0.86    0.84
  YS02001790YS02001791 CONDUIT   1280.28     0  01:52      3.43    1.39    0.70
  YS02001791YS02001793 CONDUIT   1237.59     0  01:54      6.75    0.53    0.45
  YS02001793JiankangQianchi CONDUIT   1234.98     0  01:51      2.48    0.10    0.65
  YS02001882YS02001884 CONDUIT     77.17     0  01:47      0.12    0.09    1.00
  YS02001884YS02001887 CONDUIT    146.85     0  01:47      0.19    0.20    1.00
  YS02001887YS02001890 CONDUIT    653.33     0  01:50      0.83    1.12    1.00
  YS02001890YS02001895 CONDUIT    611.90     0  01:47      0.78    0.29    1.00
  YS02001895YS02001898 CONDUIT    603.15     0  01:48      0.77    1.05    1.00
  YS02001898YS02001901 CONDUIT    608.24     0  01:48      0.77    0.39    1.00
  YS02001901YS02001904 CONDUIT    608.34     0  01:48      0.77    0.94    1.00
  YS02001904YS02001907 CONDUIT    607.86     0  01:48      0.77    0.21    1.00
  YS02001907YS02006553 CONDUIT    808.95     0  02:06      0.90    0.95    1.00
  YS02001910YS02001907 CONDUIT   1127.00     0  01:50      1.43    0.64    1.00
  YS02001915YS02001910 CONDUIT   1126.94     0  01:50      1.43    0.56    1.00
  YS02001918YS02001915 CONDUIT    722.80     0  01:48      0.93    0.40    1.00
  YS02001920YS02001918 CONDUIT    694.39     0  01:48      0.88    0.67    1.00
  YS02001923YS02001920 CONDUIT    719.53     0  01:48      0.98    0.32    1.00
  YS02001926YS02001923 CONDUIT    923.85     0  01:48      1.39    1.32    1.00
  YS02001929YS02001926 CONDUIT    825.18     0  01:49      1.23    0.39    1.00
  YS02006553YS02006556 CONDUIT    809.17     0  02:06      1.03    0.69    1.00
  YS02006556YS02006558 CONDUIT    809.54     0  02:06      1.03    0.64    1.00
  YS02006558YS02006561 CONDUIT   1171.85     0  01:48      4.14    2.59    1.00
  YS02006561YS02001783 CONDUIT   1160.28     0  01:49      2.31    0.60    1.00
  YS02163301YS02001633 CONDUIT    878.07     0  01:48      1.12    0.83    1.00
  YS02163601YS02164001 CONDUIT   1423.69     0  01:48      1.81    1.26    1.00
  YS02164001YS02001641 CONDUIT   1421.74     0  01:48      1.81    1.94    1.00
  CC-R1                PUMP       683.00     0  00:05              1.00
  CC-R2                PUMP       683.00     0  00:05              1.00
  CC-S1                PUMP       200.00     0  00:20              1.00
  CC-S2                PUMP       200.00     0  00:20              1.00
  JK-R1                PUMP      1000.00     0  00:05              1.00
  JK-R2                PUMP      1000.00     0  01:45              1.00
  JK-S                 PUMP       300.00     0  00:05              1.00
  
  
  ***************************
  Flow Classification Summary
  ***************************
  
  -------------------------------------------------------------------------------------
                      Adjusted    ---------- Fraction of Time in Flow Class ---------- 
                       /Actual         Up    Down  Sub   Sup   Up    Down  Norm  Inlet 
  Conduit               Length    Dry  Dry   Dry   Crit  Crit  Crit  Crit  Ltd   Ctrl  
  -------------------------------------------------------------------------------------
  1                       1.00   0.00  0.00  0.00  0.00  1.00  0.00  0.00  0.33  0.00
  WS02003060WS02003069    1.00   0.00  0.00  0.00  0.98  0.02  0.00  0.00  0.75  0.00
  WS02003066WSF200        1.00   0.03  0.00  0.00  0.00  0.97  0.00  0.00  0.89  0.00
  WS02003067WS02003066    1.00   0.02  0.01  0.00  0.97  0.00  0.00  0.00  0.00  0.00
  WS02003069WS02003072    1.00   0.00  0.00  0.00  0.99  0.01  0.00  0.00  0.77  0.00
  WS02003072WS02003073    1.00   0.00  0.00  0.00  0.00  0.00  0.00  1.00  0.00  0.00
  WS02004401WS02004402    1.00   0.00  0.00  0.00  1.00  0.00  0.00  0.00  0.00  0.00
  WS02004402WS02004403    1.00   0.00  0.00  0.00  1.00  0.00  0.00  0.00  0.00  0.00
  WS02004403WS02004404    1.00   0.00  0.00  0.00  1.00  0.00  0.00  0.00  0.00  0.00
  WS02004404WS02004405    1.00   0.00  0.00  0.00  1.00  0.00  0.00  0.00  0.01  0.00
  WS02004405WS02004406    1.00   0.00  0.00  0.00  1.00  0.00  0.00  0.00  0.00  0.00
  WS02004406WS02004407    1.00   0.00  0.00  0.00  1.00  0.00  0.00  0.00  0.00  0.00
  WS02004407WS02004409    1.00   0.00  0.00  0.00  0.99  0.01  0.00  0.00  0.99  0.00
  WS02004409WS02004410    1.00   0.00  0.00  0.00  0.99  0.00  0.00  0.00  0.00  0.00
  WS02004410WS02004411    1.00   0.01  0.00  0.00  0.99  0.00  0.00  0.00  0.00  0.00
  WS02004411WS02004412    1.00   0.01  0.00  0.00  0.99  0.00  0.00  0.00  0.00  0.00
  WS02004412WS02004413    1.00   0.01  0.00  0.00  0.99  0.00  0.00  0.00  0.00  0.00
  WS02004413WS02003067    1.00   0.01  0.01  0.00  0.00  0.00  0.98  0.00  0.00  0.00
  WS02006109WS02006110    1.00   0.00  0.00  0.00  1.00  0.00  0.00  0.00  0.00  0.00
  WS02006110WS02006113    1.00   0.00  0.00  0.00  1.00  0.00  0.00  0.00  0.00  0.00
  WS02006111WS02006112    1.00   0.00  0.00  0.00  1.00  0.00  0.00  0.00  1.00  0.00
  WS02006112WS02006115    1.00   0.00  0.00  0.00  1.00  0.00  0.00  0.00  0.00  0.00
  WS02006113WS02006111    1.00   0.00  0.00  0.00  0.01  0.99  0.00  0.00  0.09  0.00
  WS02006115WS02006116    1.00   0.00  0.00  0.00  1.00  0.00  0.00  0.00  0.00  0.00
  WS02006116WS02004401    1.00   0.00  0.00  0.00  1.00  0.00  0.00  0.00  0.00  0.00
  WS02006228WS02006109    1.00   0.00  0.00  0.00  1.00  0.00  0.00  0.00  0.00  0.00
  WS02006229WS02006228    1.00   0.00  0.00  0.00  1.00  0.00  0.00  0.00  0.00  0.00
  WS02006230WS02006229    1.00   0.00  0.00  0.00  1.00  0.00  0.00  0.00  0.04  0.00
  WS02006231WS02006230    1.00   0.00  0.00  0.00  0.23  0.00  0.77  0.00  0.00  0.00
  WS02006232WS02006231    1.00   0.00  0.00  0.00  0.99  0.00  0.01  0.00  0.00  0.00
  WS02006234WS02006232    1.00   0.00  0.00  0.00  0.99  0.00  0.00  0.00  0.06  0.00
  WS02006235WS02006234    1.00   0.01  0.00  0.00  0.87  0.00  0.12  0.00  0.00  0.00
  WS02006238WS02006235    1.00   0.01  0.00  0.00  0.99  0.00  0.00  0.00  0.00  0.00
  WS02006239WS02006238    1.00   0.01  0.00  0.00  0.99  0.00  0.00  0.00  0.14  0.00
  WS02006240WS02006239    1.00   0.01  0.00  0.00  0.60  0.00  0.00  0.38  0.04  0.00
  WS02006242WS02006240    1.00   0.01  0.00  0.00  0.97  0.00  0.01  0.00  0.00  0.00
  WS02006243WS02006242    1.00   0.02  0.00  0.00  0.98  0.00  0.00  0.00  0.68  0.00
  WS02006245WS02006243    1.00   0.03  0.00  0.00  0.77  0.00  0.00  0.20  0.01  0.00
  WS02006247WS02006245    1.00   0.02  0.00  0.00  0.91  0.00  0.00  0.07  0.00  0.00
  WS02006248WS02006247    1.00   0.02  0.00  0.00  0.94  0.00  0.00  0.04  0.59  0.00
  WS02006249WS02006248    1.00   0.00  0.02  0.00  0.38  0.00  0.60  0.00  0.00  0.00
  WS02006251WS02006249    1.00   0.00  0.00  0.00  0.99  0.01  0.00  0.00  0.64  0.00
  WS02006252WS02006251    1.00   0.04  0.52  0.00  0.09  0.00  0.35  0.00  0.00  0.00
  WS02006256WS02006235    1.00   0.01  0.00  0.00  0.97  0.02  0.00  0.00  0.00  0.00
  WSF200WS02003060        1.00   0.00  0.03  0.00  0.53  0.44  0.00  0.00  0.73  0.00
  YS02001580YS02001583    1.00   0.22  0.61  0.00  0.17  0.00  0.00  0.00  0.70  0.00
  YS02001583YS02001586    1.00   0.44  0.33  0.00  0.23  0.00  0.00  0.00  0.70  0.00
  YS02001586YS02001590    1.00   0.13  0.00  0.00  0.40  0.04  0.00  0.43  0.35  0.00
  YS02001590YS02001593    1.00   0.13  0.01  0.00  0.09  0.00  0.77  0.00  0.00  0.00
  YS02001593YS02001596    1.00   0.14  0.00  0.00  0.11  0.01  0.00  0.75  0.02  0.00
  YS02001596YS02001600    1.00   0.14  0.00  0.00  0.18  0.01  0.00  0.67  0.06  0.00
  YS02001600YS02001601    1.00   0.13  0.01  0.00  0.86  0.00  0.00  0.00  0.62  0.00
  YS02001601YS02001602    1.00   0.13  0.01  0.00  0.86  0.00  0.00  0.00  0.00  0.00
  YS02001602YS02001605    1.00   0.14  0.00  0.00  0.86  0.00  0.00  0.00  0.00  0.00
  YS02001605YS02001607    1.00   0.14  0.00  0.00  0.86  0.00  0.00  0.00  0.00  0.00
  YS02001607YS02001610    1.00   0.13  0.01  0.00  0.86  0.00  0.00  0.00  0.02  0.00
  YS02001610YS02001613    1.00   0.13  0.00  0.00  0.87  0.00  0.00  0.00  0.01  0.00
  YS02001613YS02001616    1.00   0.13  0.00  0.00  0.87  0.00  0.00  0.00  0.01  0.00
  YS02001616YS02001619    1.00   0.13  0.00  0.00  0.87  0.00  0.00  0.00  0.00  0.00
  YS02001619YS02001622    1.00   0.13  0.00  0.00  0.87  0.00  0.00  0.00  0.30  0.00
  YS02001622YS02001625    1.00   0.13  0.00  0.00  0.87  0.00  0.00  0.00  0.05  0.00
  YS02001625YS02001629    1.00   0.13  0.05  0.00  0.13  0.00  0.68  0.00  0.00  0.00
  YS02001629YS02163301    1.00   0.16  0.01  0.00  0.83  0.00  0.00  0.00  0.00  0.00
  YS02001633YS02163601    1.00   0.00  0.01  0.00  0.99  0.00  0.00  0.00  0.15  0.00
  YS02001641YS02001644    1.00   0.00  0.01  0.00  0.99  0.00  0.00  0.00  0.00  0.00
  YS02001644YS02001647    1.00   0.00  0.18  0.00  0.82  0.00  0.00  0.00  0.00  0.00
  YS02001647YS02001649    1.00   0.00  0.18  0.00  0.53  0.29  0.00  0.00  0.58  0.00
  YS02001649YS02001757    1.00   0.00  0.00  0.00  0.70  0.30  0.00  0.00  0.51  0.00
  YS02001652YS02001649    1.00   0.00  0.00  0.00  0.96  0.04  0.00  0.00  0.76  0.00
  YS02001655YS02001652    1.00   0.00  0.00  0.00  0.15  0.02  0.00  0.83  0.06  0.00
  YS02001658YS02001655    1.00   0.00  0.14  0.00  0.63  0.22  0.00  0.00  0.71  0.00
  YS02001661YS02001658    1.00   0.14  0.00  0.00  0.47  0.38  0.00  0.00  0.74  0.00
  YS02001664YS02001661    1.00   0.13  0.00  0.00  0.77  0.11  0.00  0.00  0.86  0.00
  YS02001745YS02001748    1.00   0.00  0.00  0.00  0.06  0.01  0.00  0.93  0.05  0.00
  YS02001748YS02001751    1.00   0.00  0.00  0.00  0.80  0.20  0.00  0.00  0.80  0.00
  YS02001751YS02001754    1.00   0.00  0.00  0.00  0.12  0.01  0.00  0.87  0.03  0.00
  YS02001754YS02001757    1.00   0.00  0.00  0.00  1.00  0.00  0.00  0.00  0.86  0.00
  YS02001757CaochengTiaoxuchi    1.00   0.00  0.00  0.00  0.97  0.03  0.00  0.00  0.83  0.00
  YS02001759YS02001757    1.00   0.00  0.00  0.00  1.00  0.00  0.00  0.00  0.67  0.00
  YS02001762YS02001759    1.00   0.00  0.00  0.00  1.00  0.00  0.00  0.00  0.04  0.00
  YS02001765YS02001762    1.00   0.00  0.00  0.00  1.00  0.00  0.00  0.00  0.76  0.00
  YS02001767YS02001765    1.00   0.00  0.00  0.00  1.00  0.00  0.00  0.00  0.00  0.00
  YS02001770YS02001767    1.00   0.00  0.00  0.00  1.00  0.00  0.00  0.00  0.00  0.00
  YS02001774YS02001770    1.00   0.00  0.13  0.00  0.69  0.00  0.18  0.00  0.03  0.00
  YS02001779YS02001774    1.00   0.00  0.00  0.00  1.00  0.00  0.00  0.00  0.81  0.00
  YS02001783YS02001784    1.00   0.00  0.19  0.00  0.81  0.00  0.00  0.00  0.56  0.00
  YS02001784YS02001785    1.00   0.00  0.00  0.00  1.00  0.00  0.00  0.00  0.17  0.00
  YS02001786YS02001788    1.00   0.00  0.00  0.00  0.80  0.20  0.00  0.00  0.00  0.00
  YS02001788YS02001790    1.00   0.00  0.00  0.00  0.22  0.78  0.00  0.00  0.84  0.00
  YS02001790YS02001791    1.00   0.00  0.00  0.00  0.01  0.99  0.00  0.00  0.16  0.00
  YS02001791YS02001793    1.00   0.00  0.00  0.00  0.00  1.00  0.00  0.00  0.01  0.00
  YS02001793JiankangQianchi    1.00   0.00  0.00  0.00  0.97  0.02  0.00  0.00  0.97  0.00
  YS02001882YS02001884    1.00   0.16  0.01  0.00  0.83  0.00  0.00  0.00  0.00  0.00
  YS02001884YS02001887    1.00   0.06  0.05  0.00  0.89  0.00  0.00  0.00  0.00  0.00
  YS02001887YS02001890    1.00   0.00  0.00  0.00  0.97  0.00  0.03  0.00  0.00  0.00
  YS02001890YS02001895    1.00   0.00  0.17  0.00  0.83  0.00  0.00  0.00  0.00  0.00
  YS02001895YS02001898    1.00   0.17  0.00  0.00  0.81  0.00  0.02  0.00  0.00  0.00
  YS02001898YS02001901    1.00   0.17  0.00  0.00  0.83  0.00  0.00  0.00  0.01  0.00
  YS02001901YS02001904    1.00   0.17  0.00  0.00  0.83  0.00  0.00  0.00  0.00  0.00
  YS02001904YS02001907    1.00   0.00  0.17  0.00  0.83  0.00  0.00  0.00  0.00  0.00
  YS02001907YS02006553    1.00   0.00  0.02  0.00  0.98  0.00  0.00  0.00  0.00  0.00
  YS02001910YS02001907    1.00   0.00  0.00  0.00  0.97  0.00  0.00  0.03  0.12  0.00
  YS02001915YS02001910    1.00   0.00  0.00  0.00  0.96  0.04  0.00  0.00  0.17  0.00
  YS02001918YS02001915    1.00   0.00  0.00  0.00  0.98  0.02  0.00  0.00  0.78  0.00
  YS02001920YS02001918    1.00   0.00  0.00  0.00  1.00  0.00  0.00  0.00  0.01  0.00
  YS02001923YS02001920    1.00   0.00  0.00  0.00  1.00  0.00  0.00  0.00  0.94  0.00
  YS02001926YS02001923    1.00   0.00  0.07  0.00  0.05  0.00  0.88  0.00  0.00  0.00
  YS02001929YS02001926    1.00   0.00  0.13  0.00  0.87  0.00  0.00  0.00  0.83  0.00
  YS02006553YS02006556    1.00   0.01  0.00  0.00  0.99  0.00  0.00  0.00  0.03  0.00
  YS02006556YS02006558    1.00   0.00  0.00  0.00  1.00  0.00  0.00  0.00  0.00  0.00
  YS02006558YS02006561    1.00   0.19  0.00  0.00  0.05  0.77  0.00  0.00  0.19  0.00
  YS02006561YS02001783    1.00   0.19  0.00  0.00  0.07  0.74  0.00  0.00  0.70  0.00
  YS02163301YS02001633    1.00   0.00  0.16  0.00  0.84  0.00  0.00  0.00  0.00  0.00
  YS02163601YS02164001    1.00   0.00  0.08  0.00  0.92  0.00  0.00  0.00  0.00  0.00
  YS02164001YS02001641    1.00   0.01  0.07  0.00  0.92  0.00  0.00  0.00  0.06  0.00
  
  
  *************************
  Conduit Surcharge Summary
  *************************
  
  ----------------------------------------------------------------------------
                                                           Hours        Hours 
                         --------- Hours Full --------   Above Full   Capacity
  Conduit                Both Ends  Upstream  Dnstream   Normal Flow   Limited
  ----------------------------------------------------------------------------
  WS02003072WS02003073        0.01      0.01      0.01      1.13         0.01
  WS02004401WS02004402        0.01      0.01      0.01      0.01         0.01
  WS02004402WS02004403        0.01      0.01      0.01      0.01         0.01
  WS02004403WS02004404        0.01      0.01      0.01      0.01         0.01
  WS02004404WS02004405        0.01      0.01      0.01      2.15         0.01
  WS02004405WS02004406        0.01      0.01      0.01      0.38         0.01
  WS02006109WS02006110        0.55      0.56      1.78      0.66         0.01
  WS02006110WS02006113        0.01      0.01      1.78      0.01         0.01
  WS02006111WS02006112        0.01      0.01      1.88      0.01         0.01
  WS02006112WS02006115        0.01      0.01      0.65      0.01         0.01
  WS02006113WS02006111        0.01      0.01      0.01      0.01         0.01
  WS02006115WS02006116        0.01      0.01      0.01      0.01         0.01
  WS02006116WS02004401        0.01      0.01      0.01      0.01         0.01
  WS02006228WS02006109        1.77      1.79      1.77      1.89         1.77
  WS02006229WS02006228        1.76      1.77      1.76      1.84         1.75
  WS02006230WS02006229        1.81      1.83      1.81      2.57         1.81
  WS02006231WS02006230        0.57      0.57      0.74      2.18         0.01
  WS02006232WS02006231        0.67      0.67      1.79      0.77         0.01
  WS02006234WS02006232        1.72      1.72      1.79      0.75         0.74
  WS02006235WS02006234        1.14      1.14      1.73      2.13         0.02
  WS02006238WS02006235        1.74      1.74      1.79      0.01         0.01
  WS02006239WS02006238        1.77      1.78      1.77      1.76         1.60
  WS02006240WS02006239        1.75      1.77      1.75      1.75         1.55
  WS02006242WS02006240        1.77      1.77      1.79      1.82         0.01
  WS02006243WS02006242        1.77      1.77      1.78      0.01         0.05
  WS02006245WS02006243        1.76      1.76      1.76      1.18         1.17
  WS02006247WS02006245        1.76      1.76      1.76      1.95         1.75
  WS02006248WS02006247        1.75      1.75      1.76      0.01         0.05
  WS02006249WS02006248        1.74      1.74      1.74      1.91         0.01
  WS02006251WS02006249        1.74      1.74      1.74      1.81         1.66
  WS02006252WS02006251        1.90      1.90      1.93      1.90         0.01
  WS02006256WS02006235        2.11      2.16      6.79      1.08         0.01
  YS02001580YS02001583        0.45      0.45      0.51      0.01         0.01
  YS02001583YS02001586        0.46      0.46      0.59      0.01         0.01
  YS02001586YS02001590        0.59      0.59      0.66      0.01         0.01
  YS02001590YS02001593        0.65      0.65      0.67      0.70         0.01
  YS02001593YS02001596        0.66      0.66      0.75      0.01         0.01
  YS02001596YS02001600        0.78      0.78      0.87      0.01         0.01
  YS02001600YS02001601        0.93      0.93      1.25      0.01         0.01
  YS02001601YS02001602        1.11      1.11      1.30      0.89         0.01
  YS02001602YS02001605        1.06      1.06      1.11      2.05         0.01
  YS02001605YS02001607        1.01      1.06      1.01      1.19         1.01
  YS02001607YS02001610        0.61      0.61      0.64      0.01         0.01
  YS02001610YS02001613        0.61      0.61      0.64      0.01         0.01
  YS02001613YS02001616        0.57      0.57      0.61      0.01         0.01
  YS02001616YS02001619        0.56      0.56      0.57      0.01         0.01
  YS02001619YS02001622        0.55      0.56      0.55      0.69         0.53
  YS02001622YS02001625        0.55      0.55      0.71      0.01         0.01
  YS02001625YS02001629        0.50      0.50      0.71      0.01         0.01
  YS02001629YS02163301        0.70      0.70      0.71      0.22         0.20
  YS02001633YS02163601        0.72      0.72      0.75      0.40         0.39
  YS02001641YS02001644        0.63      0.66      0.63      1.36         0.63
  YS02001644YS02001647        0.44      0.44      0.63      0.03         0.01
  YS02001647YS02001649        0.44      0.44      0.54      0.01         0.01
  YS02001649YS02001757        0.54      0.54      0.59      0.32         0.29
  YS02001652YS02001649        0.39      0.39      0.54      0.01         0.01
  YS02001655YS02001652        0.21      0.21      0.37      0.01         0.01
  YS02001658YS02001655        0.07      0.07      0.21      0.01         0.01
  YS02001661YS02001658        0.01      0.01      0.07      0.01         0.01
  YS02001664YS02001661        0.01      0.01      0.01      0.01         0.01
  YS02001745YS02001748        0.01      0.01      0.01      0.01         0.01
  YS02001748YS02001751        0.05      0.05      0.11      0.01         0.01
  YS02001751YS02001754        0.11      0.11      0.23      0.01         0.01
  YS02001754YS02001757        0.28      0.28      0.59      0.01         0.01
  YS02001757CaochengTiaoxuchi        0.49      0.59      1.27      0.31         0.20
  YS02001759YS02001757        0.50      0.50      0.59      0.01         0.02
  YS02001762YS02001759        0.47      0.47      0.50      0.01         0.02
  YS02001765YS02001762        0.43      0.43      0.47      0.01         0.01
  YS02001767YS02001765        0.40      0.40      0.43      0.01         0.04
  YS02001770YS02001767        0.40      0.40      0.40      0.43         0.31
  YS02001774YS02001770        0.38      0.38      0.45      0.01         0.01
  YS02001779YS02001774        0.23      0.23      0.45      0.01         0.01
  YS02001783YS02001784        0.42      0.44      0.42      0.56         0.42
  YS02001784YS02001785        0.32      0.42      0.32      0.75         0.32
  YS02001786YS02001788        0.01      0.32      0.01      0.64         0.01
  YS02001790YS02001791        0.01      0.01      0.01      0.40         0.01
  YS02001793JiankangQianchi        0.01      0.01      6.41      0.01         0.01
  YS02001882YS02001884        0.39      0.39      0.40      0.01         0.01
  YS02001884YS02001887        0.42      0.42      0.43      0.01         0.01
  YS02001887YS02001890        0.44      0.44      0.45      0.06         0.01
  YS02001890YS02001895        0.38      0.38      0.46      0.01         0.01
  YS02001895YS02001898        0.37      0.37      0.38      0.01         0.01
  YS02001898YS02001901        0.38      0.38      0.42      0.01         0.01
  YS02001901YS02001904        0.41      0.41      0.42      0.01         0.01
  YS02001904YS02001907        0.41      0.41      0.62      0.01         0.01
  YS02001907YS02006553        0.76      0.76      0.81      0.01         0.01
  YS02001910YS02001907        0.47      0.47      0.61      0.01         0.01
  YS02001915YS02001910        0.39      0.39      0.47      0.01         0.01
  YS02001918YS02001915        0.31      0.31      0.39      0.01         0.01
  YS02001920YS02001918        0.31      0.31      0.33      0.01         0.01
  YS02001923YS02001920        0.28      0.28      0.33      0.01         0.01
  YS02001926YS02001923        0.01      0.01      0.02      0.01         0.01
  YS02001929YS02001926        0.01      0.01      0.02      0.01         0.01
  YS02006553YS02006556        0.54      0.54      0.62      0.01         0.01
  YS02006556YS02006558        0.58      0.58      0.63      0.01         0.01
  YS02006558YS02006561        0.35      0.53      0.35      0.71         0.35
  YS02006561YS02001783        0.28      0.28      0.44      0.01         0.01
  YS02163301YS02001633        0.71      0.71      0.74      0.01         0.01
  YS02163601YS02164001        0.67      0.67      0.75      0.06         0.01
  YS02164001YS02001641        0.66      0.67      0.66      0.68         0.57
  
  
  ***************
  Pumping Summary
  ***************
  
  ---------------------------------------------------------------------------------------------------------
                                                  Min       Avg       Max     Total     Power    % Time Off
                        Percent   Number of      Flow      Flow      Flow    Volume     Usage    Pump Curve
  Pump                 Utilized   Start-Ups       LPS       LPS       LPS  10^6 ltr     Kw-hr    Low   High
  ---------------------------------------------------------------------------------------------------------
  CC-R1                   22.68          26      0.00    683.00    683.00     4.461     79.74    0.0   35.7
  CC-R2                   13.78          27      0.00    683.00    683.00     2.711     48.73    0.0   37.9
  CC-S1                   24.41          31      0.00    200.00    200.00     1.406      8.67    0.0    0.0
  CC-S2                   25.36          25      0.00    200.00    200.00     1.461      9.04    0.0    0.0
  JK-R1                    5.01           9      0.00   1000.00   1000.00     1.444     15.19    0.0    0.0
  JK-R2                    3.56          12      0.00   1000.00   1000.00     1.024      7.47    0.0    0.0
  JK-S                    12.95          39      0.00    300.00    300.00     1.119     18.47    0.0    0.0
  

  Analysis begun on:  Fri Aug  4 09:50:57 2023
  Analysis ended on:  Fri Aug  4 09:51:01 2023
  Total elapsed time: 00:00:04