
  OWA STORM WATER MANAGEMENT MODEL - VERSION v5.1.14 (OWA 2022-07-31)
  --------------------------------------------------------------

  WARNING 04: minimum elevation drop used for Conduit WS02004404WS02004405
  WARNING 03: negative offset ignored for Link YS02001904YS02001907
  
  *********************************************************
  NOTE: The summary statistics displayed in this report are
  based on results found at every computational time step,  
  not just on results from each reporting time step.
  *********************************************************
  
  ****************
  Analysis Options
  ****************
  Flow Units ............... LPS
  Process Models:
    Rainfall/Runoff ........ YES
    RDII ................... NO
    Snowmelt ............... NO
    Groundwater ............ NO
    Flow Routing ........... YES
    Ponding Allowed ........ NO
    Water Quality .......... NO
  Infiltration Method ...... HORTON
  Flow Routing Method ...... DYNWAVE
  Surcharge Method ......... EXTRAN
  Starting Date ............ 08/28/2015 08:00:00
  Ending Date .............. 08/28/2015 16:00:00
  Antecedent Dry Days ...... 8.0
  Report Time Step ......... 00:01:00
  Wet Time Step ............ 00:01:00
  Dry Time Step ............ 00:01:00
  Routing Time Step ........ 30.00 sec
  Variable Time Step ....... YES
  Maximum Trials ........... 8
  Number of Threads ........ 1
  Head Tolerance ........... 0.001500 m
  
  
  **************************        Volume         Depth
  Runoff Quantity Continuity     hectare-m            mm
  **************************     ---------       -------
  Total Precipitation ......         2.107        63.518
  Evaporation Loss .........         0.000         0.000
  Infiltration Loss ........         0.106         3.210
  Surface Runoff ...........         1.968        59.320
  Final Storage ............         0.033         0.999
  Continuity Error (%) .....        -0.017
  
  
  **************************        Volume        Volume
  Flow Routing Continuity        hectare-m      10^6 ltr
  **************************     ---------     ---------
  Dry Weather Inflow .......         0.000         0.000
  Wet Weather Inflow .......         1.968        19.679
  Groundwater Inflow .......         0.000         0.000
  RDII Inflow ..............         0.000         0.000
  External Inflow ..........         0.083         0.834
  External Outflow .........         2.091        20.915
  Flooding Loss ............         0.052         0.520
  Evaporation Loss .........         0.000         0.000
  Exfiltration Loss ........         0.000         0.000
  Initial Stored Volume ....         0.243         2.431
  Final Stored Volume ......         0.181         1.808
  Continuity Error (%) .....        -1.306
  
  
  *************************
  Highest Continuity Errors
  *************************
  Node WS02006256 (66.71%)
  Node YS02001884 (2.51%)
  Node YS02001583 (-2.37%)
  Node YS02001774 (1.87%)
  
  
  ***************************
  Time-Step Critical Elements
  ***************************
  Link WS02006252WS02006251 (74.83%)
  Link YS02001791YS02001793 (6.10%)
  Link YS02006556YS02006558 (4.32%)
  Link WS02006235WS02006234 (4.26%)
  Link WS02004404WS02004405 (3.35%)
  
  
  ********************************
  Highest Flow Instability Indexes
  ********************************
  Link WS02006113WS02006111 (59)
  Link WS02006111WS02006112 (34)
  Link WS02004404WS02004405 (16)
  Link WS02004403WS02004404 (14)
  Link WS02004405WS02004406 (13)
  
  
  *************************
  Routing Time Step Summary
  *************************
  Minimum Time Step           :     0.01 sec
  Average Time Step           :     1.10 sec
  Maximum Time Step           :    30.00 sec
  Percent in Steady State     :    -0.00
  Average Iterations per Step :     2.49
  Percent Not Converging      :     4.38
  
  
  ***************************
  Subcatchment Runoff Summary
  ***************************
  
  ------------------------------------------------------------------------------------------------------------------------------
                            Total      Total      Total      Total     Imperv       Perv      Total       Total     Peak  Runoff
                           Precip      Runon       Evap      Infil     Runoff     Runoff     Runoff      Runoff   Runoff   Coeff
  Subcatchment                 mm         mm         mm         mm         mm         mm         mm    10^6 ltr      LPS
  ------------------------------------------------------------------------------------------------------------------------------
  sub60                     63.52       0.00       0.00       1.94      54.69       5.68      60.37        0.79   147.31   0.951
  sub61                     63.52       0.00       0.00       2.82      51.59       7.98      59.57        1.09   203.55   0.938
  sub62                     63.52       0.00       0.00       1.29      57.15       3.79      60.94        1.67   294.43   0.959
  sub63                     63.52       0.00       0.00       5.20      44.13      13.22      57.35        1.30   230.65   0.903
  sub64                     63.52       0.00       0.00       2.63      52.78       6.90      59.67        1.43   242.95   0.939
  sub65                     63.52       0.00       0.00       2.28      54.00       5.98      59.98        1.65   274.87   0.944
  sub66                     63.52       0.00       0.00       6.32      44.01      12.10      56.11        2.62   428.40   0.883
  sub67                     63.52       0.00       0.00       1.23      57.19       3.85      61.04        1.14   219.03   0.961
  sub68                     63.52       0.00       0.00       2.34      53.44       6.56      59.99        1.65   297.93   0.945
  sub69                     63.52       0.00       0.00       2.12      53.87       7.41      61.28        2.27   368.39   0.965
  sub70                     63.52       0.00       0.00       6.80      41.75      14.79      56.54        1.63   254.72   0.890
  sub71                     63.52       0.00       0.00       1.33      57.10       3.75      60.85        1.59   266.49   0.958
  sub72                     63.52       0.00       0.00       1.18      57.66       3.26      60.92        0.84   136.65   0.959
  
  
  ******************
  Node Depth Summary
  ******************
  
  ---------------------------------------------------------------------------------
                                 Average  Maximum  Maximum  Time of Max    Reported
                                   Depth    Depth      HGL   Occurrence   Max Depth
  Node                 Type       Meters   Meters   Meters  days hr:min      Meters
  ---------------------------------------------------------------------------------
  WS02003060           JUNCTION     0.25     0.33     5.27     0  03:15        0.33
  WS02003066           JUNCTION     0.21     0.27     5.82     0  03:14        0.27
  WS02003067           JUNCTION     0.53     0.65     5.97     0  03:14        0.65
  WS02003069           JUNCTION     0.27     0.37     4.96     0  03:16        0.37
  WS02003072           JUNCTION     0.34     0.44     4.82     0  02:41        0.44
  WS02003073           JUNCTION     0.19     0.26     4.33     0  02:41        0.26
  WS02004401           JUNCTION     0.62     0.77     6.77     0  02:46        0.77
  WS02004402           JUNCTION     0.66     0.80     6.76     0  03:17        0.80
  WS02004403           JUNCTION     0.68     0.82     6.75     0  02:51        0.82
  WS02004404           JUNCTION     0.76     0.90     6.75     0  02:40        0.90
  WS02004405           JUNCTION     0.74     0.88     6.73     0  02:45        0.88
  WS02004406           JUNCTION     0.76     0.88     6.71     0  02:42        0.88
  WS02004407           JUNCTION     0.19     0.26     6.57     0  03:13        0.26
  WS02004409           JUNCTION     0.42     0.57     6.34     0  02:38        0.57
  WS02004410           JUNCTION     0.44     0.59     6.31     0  03:13        0.59
  WS02004411           JUNCTION     0.46     0.61     6.29     0  02:38        0.61
  WS02004412           JUNCTION     0.49     0.62     6.26     0  02:39        0.62
  WS02004413           JUNCTION     0.65     0.79     6.26     0  03:14        0.79
  WS02006109           JUNCTION     0.66     1.24     7.85     0  00:00        0.83
  WS02006110           JUNCTION     0.67     1.45     8.04     0  00:00        0.82
  WS02006111           JUNCTION     0.19     1.67     8.37     0  00:00        0.56
  WS02006112           JUNCTION     0.78     2.68     8.56     0  00:00        1.29
  WS02006113           JUNCTION     0.28     1.50     8.40     0  00:00        0.39
  WS02006115           JUNCTION     0.50     1.69     7.83     0  00:00        0.86
  WS02006116           JUNCTION     0.59     1.11     7.15     0  00:00        0.77
  WS02006228           JUNCTION     0.65     1.64     8.29     0  00:00        0.84
  WS02006229           JUNCTION     0.62     1.31     8.00     0  00:00        0.82
  WS02006230           JUNCTION     0.60     0.88     7.62     0  00:01        0.86
  WS02006231           JUNCTION     0.42     0.59     7.72     0  02:35        0.59
  WS02006232           JUNCTION     0.55     0.75     7.79     0  03:07        0.75
  WS02006234           JUNCTION     0.46     0.71     7.87     0  02:32        0.71
  WS02006235           JUNCTION     0.49     0.76     7.92     0  03:01        0.76
  WS02006238           JUNCTION     0.52     0.81     7.95     0  02:55        0.80
  WS02006239           JUNCTION     0.50     0.80     8.01     0  02:47        0.80
  WS02006240           JUNCTION     0.46     0.79     8.08     0  02:54        0.79
  WS02006242           JUNCTION     0.54     0.90     8.17     0  02:34        0.90
  WS02006243           JUNCTION     0.44     0.84     8.26     0  02:52        0.83
  WS02006245           JUNCTION     0.45     0.85     8.34     0  02:42        0.85
  WS02006247           JUNCTION     0.48     0.99     8.49     0  02:51        0.99
  WS02006248           JUNCTION     0.44     0.86     8.44     0  02:52        0.85
  WS02006249           JUNCTION     0.48     0.92     8.52     0  02:51        0.92
  WS02006251           JUNCTION     0.47     0.91     8.58     0  02:34        0.91
  WS02006252           JUNCTION     0.38     1.50     9.74     0  01:30        0.59
  WS02006256           JUNCTION     0.72     1.00     7.93     0  02:46        1.00
  WSF200               JUNCTION     0.18     0.25     5.48     0  02:37        0.25
  YS02001580           JUNCTION     0.07     0.93     9.47     0  01:41        0.63
  YS02001583           JUNCTION     0.10     0.97     9.46     0  01:41        0.67
  YS02001586           JUNCTION     0.16     1.13     9.30     0  01:41        0.99
  YS02001590           JUNCTION     0.24     1.39     9.25     0  01:41        1.25
  YS02001593           JUNCTION     0.20     1.32     9.18     0  01:41        1.19
  YS02001596           JUNCTION     0.28     1.68     9.09     0  01:41        1.58
  YS02001600           JUNCTION     0.35     1.87     9.00     0  01:41        1.83
  YS02001601           JUNCTION     0.51     2.06     8.90     0  01:40        2.06
  YS02001602           JUNCTION     0.42     1.87     8.77     0  02:15        1.87
  YS02001605           JUNCTION     0.38     1.77     8.67     0  02:22        1.77
  YS02001607           JUNCTION     0.36     1.64     8.48     0  02:22        1.63
  YS02001610           JUNCTION     0.40     1.68     8.48     0  02:22        1.66
  YS02001613           JUNCTION     0.36     1.64     8.48     0  02:22        1.59
  YS02001616           JUNCTION     0.30     1.57     8.49     0  02:22        1.51
  YS02001619           JUNCTION     0.28     1.55     8.48     0  02:22        1.49
  YS02001622           JUNCTION     0.27     1.53     8.44     0  02:22        1.48
  YS02001625           JUNCTION     0.50     1.78     8.38     0  02:22        1.72
  YS02001629           JUNCTION     0.37     1.85     8.40     0  02:22        1.83
  YS02001633           JUNCTION     0.43     2.08     8.53     0  02:22        2.08
  YS02001641           JUNCTION     0.41     1.98     8.42     0  02:22        1.98
  YS02001644           JUNCTION     0.41     1.69     8.12     0  02:22        1.69
  YS02001647           JUNCTION     0.23     1.33     7.94     0  02:22        1.25
  YS02001649           JUNCTION     0.26     1.41     7.80     0  02:22        1.37
  YS02001652           JUNCTION     0.17     1.19     7.78     0  02:24        1.18
  YS02001655           JUNCTION     0.12     0.95     7.80     0  02:27        0.94
  YS02001658           JUNCTION     0.08     0.65     7.80     0  02:24        0.64
  YS02001661           JUNCTION     0.10     0.36     7.77     0  02:25        0.35
  YS02001664           JUNCTION     0.04     0.18     8.11     0  01:41        0.18
  YS02001745           JUNCTION     0.04     0.16     7.68     0  01:41        0.16
  YS02001748           JUNCTION     0.08     0.58     7.65     0  02:23        0.58
  YS02001751           JUNCTION     0.10     0.78     7.66     0  02:23        0.78
  YS02001754           JUNCTION     0.15     1.05     7.66     0  02:23        1.04
  YS02001757           JUNCTION     0.28     1.40     7.66     0  02:22        1.39
  YS02001759           JUNCTION     0.23     1.31     7.68     0  02:22        1.30
  YS02001762           JUNCTION     0.22     1.29     7.69     0  02:22        1.27
  YS02001765           JUNCTION     0.20     1.24     7.69     0  02:22        1.21
  YS02001767           JUNCTION     0.20     1.20     7.69     0  02:22        1.19
  YS02001770           JUNCTION     0.21     1.20     7.70     0  02:22        1.19
  YS02001774           JUNCTION     0.27     1.27     7.69     0  02:25        1.27
  YS02001779           JUNCTION     0.13     1.01     7.70     0  02:25        1.01
  YS02001783           JUNCTION     0.17     0.76     6.90     0  02:25        0.76
  YS02001784           JUNCTION     0.18     0.75     6.82     0  02:25        0.75
  YS02001786           JUNCTION     0.15     0.61     6.64     0  02:25        0.61
  YS02001788           JUNCTION     0.11     0.49     6.46     0  02:25        0.49
  YS02001790           JUNCTION     0.14     0.58     6.22     0  02:25        0.58
  YS02001791           JUNCTION     0.09     0.35     5.82     0  02:26        0.35
  YS02001793           JUNCTION     0.04     0.18     5.01     0  02:26        0.17
  YS02001882           JUNCTION     0.20     0.80     7.52     0  02:23        0.80
  YS02001884           JUNCTION     0.28     0.90     7.52     0  02:24        0.90
  YS02001887           JUNCTION     0.34     0.98     7.52     0  02:24        0.98
  YS02001890           JUNCTION     0.37     1.01     7.52     0  02:24        1.01
  YS02001895           JUNCTION     0.17     0.77     7.51     0  02:24        0.77
  YS02001898           JUNCTION     0.18     0.78     7.51     0  02:24        0.77
  YS02001901           JUNCTION     0.28     0.90     7.51     0  02:24        0.90
  YS02001904           JUNCTION     0.26     0.88     7.51     0  02:24        0.88
  YS02001907           JUNCTION     0.54     1.23     7.52     0  01:44        1.22
  YS02001910           JUNCTION     0.36     1.08     7.58     0  01:42        1.01
  YS02001915           JUNCTION     0.20     0.80     7.52     0  02:24        0.80
  YS02001918           JUNCTION     0.07     0.46     7.52     0  02:25        0.46
  YS02001920           JUNCTION     0.13     0.52     7.53     0  02:24        0.52
  YS02001923           JUNCTION     0.05     0.26     7.52     0  02:24        0.25
  YS02001926           JUNCTION     0.10     0.31     7.75     0  02:22        0.31
  YS02001929           JUNCTION     0.05     0.17     7.87     0  02:22        0.17
  YS02006553           JUNCTION     0.54     1.22     7.51     0  01:44        1.21
  YS02006556           JUNCTION     0.52     1.18     7.49     0  02:23        1.17
  YS02006558           JUNCTION     0.55     1.22     7.48     0  01:44        1.20
  YS02006561           JUNCTION     0.10     0.40     7.06     0  01:43        0.40
  YS02163301           JUNCTION     0.39     1.96     8.48     0  02:22        1.96
  YS02163601           JUNCTION     0.46     2.08     8.48     0  02:22        2.08
  YS02164001           JUNCTION     0.40     2.10     8.56     0  02:22        2.10
  CC-1                 OUTFALL      0.00     0.00     0.00     0  00:00        0.00
  CC-2                 OUTFALL      0.00     0.00     0.00     0  00:00        0.00
  JK-1                 OUTFALL      0.00     0.00     0.00     0  00:00        0.00
  JK-2                 OUTFALL      0.00     0.00     0.00     0  00:00        0.00
  WSC                  OUTFALL      0.19     0.26     0.93     0  02:42        0.26
  CC-storage           STORAGE      0.86     1.60     7.10     0  03:01        1.60
  JK-storage           STORAGE      1.44     3.67     4.47     0  02:25        3.67
  
  
  *******************
  Node Inflow Summary
  *******************
  
  -------------------------------------------------------------------------------------------------
                                  Maximum  Maximum                  Lateral       Total        Flow
                                  Lateral    Total  Time of Max      Inflow      Inflow     Balance
                                   Inflow   Inflow   Occurrence      Volume      Volume       Error
  Node                 Type           LPS      LPS  days hr:min    10^6 ltr    10^6 ltr     Percent
  -------------------------------------------------------------------------------------------------
  WS02003060           JUNCTION     16.53   427.59     0  03:15       0.476        7.31       0.032
  WS02003066           JUNCTION      0.00   411.01     0  03:14           0        6.84       0.019
  WS02003067           JUNCTION      0.00   410.98     0  03:14           0        6.84       0.060
  WS02003069           JUNCTION      0.32   427.88     0  03:15     0.00922        7.32       0.051
  WS02003072           JUNCTION      0.00   427.77     0  02:40           0        7.31       0.091
  WS02003073           JUNCTION      1.82   429.58     0  02:41      0.0524        7.36       0.073
  WS02004401           JUNCTION      0.00  1786.04     0  00:00           0        6.95       0.156
  WS02004402           JUNCTION      0.00  1248.69     0  00:01           0        6.94       0.157
  WS02004403           JUNCTION      0.00   929.44     0  00:01           0        6.93       0.154
  WS02004404           JUNCTION      0.00   877.02     0  00:01           0        6.92       0.224
  WS02004405           JUNCTION      0.00   827.31     0  00:01           0         6.9       0.081
  WS02004406           JUNCTION      0.00   768.45     0  00:02           0        6.89       0.311
  WS02004407           JUNCTION      0.00   411.71     0  02:42           0        6.87       0.015
  WS02004409           JUNCTION      0.00   411.55     0  03:13           0        6.87       0.037
  WS02004410           JUNCTION      0.00   411.46     0  03:13           0        6.87       0.062
  WS02004411           JUNCTION      0.00   411.44     0  03:13           0        6.87       0.080
  WS02004412           JUNCTION      0.00   411.36     0  03:13           0        6.86       0.106
  WS02004413           JUNCTION      0.00   411.25     0  03:14           0        6.85       0.194
  WS02006109           JUNCTION      0.00  1446.81     0  00:00           0        6.85      -0.056
  WS02006110           JUNCTION      0.00   410.47     0  02:39           0        6.82      -0.799
  WS02006111           JUNCTION      0.00  1180.41     0  00:00           0        6.88      -0.623
  WS02006112           JUNCTION      0.00  2307.30     0  00:00           0        6.92       0.002
  WS02006113           JUNCTION      0.00   517.18     0  00:00           0        6.84      -0.554
  WS02006115           JUNCTION      0.00   953.54     0  00:00           0        6.89      -0.518
  WS02006116           JUNCTION      0.00  1264.47     0  00:00           0        6.92      -0.338
  WS02006228           JUNCTION      0.00   869.18     0  00:00           0        6.83       0.004
  WS02006229           JUNCTION      0.00   470.55     0  00:00           0        6.82      -0.045
  WS02006230           JUNCTION     10.28   706.67     0  00:00       0.296        6.81       0.037
  WS02006231           JUNCTION      0.00   400.24     0  02:57           0         6.5       0.008
  WS02006232           JUNCTION      0.00   400.21     0  02:57           0         6.5       0.062
  WS02006234           JUNCTION      0.00   401.06     0  02:47           0        6.49      -0.008
  WS02006235           JUNCTION      0.00   401.55     0  03:07           0        6.49       0.036
  WS02006238           JUNCTION      0.00   400.82     0  02:54           0        6.49      -0.029
  WS02006239           JUNCTION      0.00   400.69     0  02:40           0        6.48      -0.057
  WS02006240           JUNCTION      0.00   400.64     0  02:53           0        6.48       0.004
  WS02006242           JUNCTION      0.00   401.23     0  02:53           0        6.49       0.034
  WS02006243           JUNCTION      0.00   401.18     0  03:04           0        6.49      -0.011
  WS02006245           JUNCTION      0.00   401.02     0  02:46           0        6.49       0.057
  WS02006247           JUNCTION      0.00   401.14     0  02:46           0        6.49       0.012
  WS02006248           JUNCTION      0.00   400.79     0  02:57           0        6.49       0.012
  WS02006249           JUNCTION      0.00   419.61     0  01:31           0        6.49       0.052
  WS02006251           JUNCTION      0.00   400.99     0  02:58           0         6.5       0.011
  WS02006252           JUNCTION      0.00   400.00     0  01:30           0        6.49      -0.112
  WS02006256           JUNCTION      0.00     9.47     0  00:03           0     0.00129     200.424
  WSF200               JUNCTION      0.00   411.00     0  03:14           0        6.83       0.008
  YS02001580           JUNCTION      0.00    68.87     0  01:41           0     0.00467       0.817
  YS02001583           JUNCTION      0.00    98.44     0  01:41           0       0.017      -2.314
  YS02001586           JUNCTION    254.72   255.59     0  02:22        1.63        1.65       0.078
  YS02001590           JUNCTION      0.00   255.63     0  02:22           0        1.63      -0.033
  YS02001593           JUNCTION      0.00   255.37     0  02:22           0        1.63       0.002
  YS02001596           JUNCTION      0.00   255.48     0  02:22           0        1.63      -0.018
  YS02001600           JUNCTION      0.00   255.66     0  02:22           0        1.63       0.018
  YS02001601           JUNCTION    368.39   622.34     0  02:22        2.27         3.9       0.018
  YS02001602           JUNCTION      0.00   493.62     0  01:43           0        3.43       0.012
  YS02001605           JUNCTION      0.00   493.58     0  01:43           0        3.41       0.018
  YS02001607           JUNCTION      0.00   493.58     0  01:43           0        3.41       0.062
  YS02001610           JUNCTION      0.00   493.57     0  01:42           0        3.41       0.086
  YS02001613           JUNCTION      0.00   493.66     0  01:42           0        3.41       0.060
  YS02001616           JUNCTION      0.00   494.18     0  01:42           0        3.41       0.023
  YS02001619           JUNCTION    428.40   866.72     0  01:42        2.62        6.03       0.006
  YS02001622           JUNCTION      0.00   867.25     0  01:42           0        6.02       0.001
  YS02001625           JUNCTION      0.00   867.70     0  01:40           0        6.02       0.189
  YS02001629           JUNCTION      0.00   868.13     0  01:40           0        6.01       0.004
  YS02001633           JUNCTION    274.87  1146.40     0  01:41        1.65        7.67       0.044
  YS02001641           JUNCTION      0.00  1146.08     0  01:41           0        7.67       0.038
  YS02001644           JUNCTION    242.95  1390.69     0  01:41        1.43        9.09       0.038
  YS02001647           JUNCTION      0.00  1390.18     0  01:41           0        9.07       0.007
  YS02001649           JUNCTION      0.00  1587.84     0  01:42           0        10.4       0.005
  YS02001652           JUNCTION      0.00   257.02     0  02:24           0         1.3      -0.256
  YS02001655           JUNCTION      0.00   329.84     0  02:29           0         1.3       0.023
  YS02001658           JUNCTION      0.00   325.88     0  02:25           0         1.3      -0.006
  YS02001661           JUNCTION      0.00   230.57     0  01:41           0         1.3       0.025
  YS02001664           JUNCTION    230.65   230.65     0  01:41         1.3         1.3      -0.005
  YS02001745           JUNCTION    147.31   147.31     0  01:41       0.793       0.793       0.079
  YS02001748           JUNCTION      0.00   147.23     0  01:41           0       0.793      -0.115
  YS02001751           JUNCTION      0.00   162.84     0  02:25           0       0.794       0.178
  YS02001754           JUNCTION      0.00   158.05     0  02:25           0       0.792      -0.234
  YS02001757           JUNCTION      0.00  2113.83     0  02:22           0        13.9       0.016
  YS02001759           JUNCTION    203.55   469.63     0  02:22        1.09        2.76      -0.006
  YS02001762           JUNCTION      0.00   284.57     0  02:25           0        1.67       0.019
  YS02001765           JUNCTION      0.00   285.67     0  02:25           0        1.67       0.020
  YS02001767           JUNCTION      0.00   286.37     0  02:25           0        1.67       0.027
  YS02001770           JUNCTION    294.43   294.43     0  01:41        1.67        1.72       0.006
  YS02001774           JUNCTION      0.00    66.55     0  01:39           0      0.0809       1.904
  YS02001779           JUNCTION      0.00    44.15     0  01:41           0      0.0271      -0.069
  YS02001783           JUNCTION      0.00   836.84     0  02:25           0        5.15       0.000
  YS02001784           JUNCTION      0.00   836.60     0  02:24           0        5.15      -0.000
  YS02001786           JUNCTION      0.00   836.10     0  02:25           0        5.15       0.005
  YS02001788           JUNCTION      0.00   836.44     0  02:25           0        5.15       0.003
  YS02001790           JUNCTION      0.00   836.40     0  02:26           0        5.15       0.012
  YS02001791           JUNCTION      0.00   877.85     0  02:27           0        5.15      -0.008
  YS02001793           JUNCTION      0.00   845.66     0  02:26           0        5.15       0.003
  YS02001882           JUNCTION      0.00    73.85     0  01:15           0       0.033       1.487
  YS02001884           JUNCTION      0.00   101.50     0  01:13           0      0.0799       2.578
  YS02001887           JUNCTION    219.03   222.88     0  01:39        1.14        1.18       0.381
  YS02001890           JUNCTION      0.00   229.10     0  01:39           0        1.13       0.367
  YS02001895           JUNCTION      0.00   212.44     0  01:39           0        1.12       0.222
  YS02001898           JUNCTION      0.00   225.08     0  01:38           0        1.12      -0.087
  YS02001901           JUNCTION      0.00   232.74     0  01:43           0        1.13       0.244
  YS02001904           JUNCTION      0.00   223.77     0  01:44           0        1.14       0.214
  YS02001907           JUNCTION      0.00   579.81     0  02:27           0        3.57       0.480
  YS02001910           JUNCTION      0.00   456.32     0  01:42           0        2.43       0.261
  YS02001915           JUNCTION    266.49   390.80     0  02:24        1.59        2.43       0.032
  YS02001918           JUNCTION      0.00   139.39     0  02:26           0       0.837       0.018
  YS02001920           JUNCTION      0.00   137.97     0  02:24           0       0.838       0.073
  YS02001923           JUNCTION      0.00   136.58     0  02:22           0       0.838      -0.011
  YS02001926           JUNCTION      0.00   136.63     0  02:22           0       0.838       0.038
  YS02001929           JUNCTION    136.65   136.65     0  02:22       0.838       0.838      -0.009
  YS02006553           JUNCTION      0.00   579.22     0  02:27           0        3.57       0.317
  YS02006556           JUNCTION      0.00   579.93     0  02:28           0        3.59       0.212
  YS02006558           JUNCTION    297.93   837.39     0  02:24        1.65         5.2       0.058
  YS02006561           JUNCTION      0.00   837.76     0  02:24           0        5.15      -0.001
  YS02163301           JUNCTION      0.00   871.99     0  01:41           0        6.02       0.027
  YS02163601           JUNCTION      0.00  1145.98     0  01:41           0        7.65       0.070
  YS02164001           JUNCTION      0.00  1146.19     0  01:41           0        7.66       0.033
  CC-1                 OUTFALL       0.00   683.00     0  01:40           0         4.7       0.000
  CC-2                 OUTFALL       0.00   683.00     0  01:52           0         3.6       0.000
  JK-1                 OUTFALL       0.00  1000.00     0  00:05           0        2.63       0.000
  JK-2                 OUTFALL       0.00  1000.00     0  00:05           0        2.63       0.000
  WSC                  OUTFALL       0.00   429.54     0  02:42           0        7.35       0.000
  CC-storage           STORAGE       0.00  2112.00     0  02:22           0        16.2      -0.155
  JK-storage           STORAGE       0.00   846.14     0  02:26           0         5.3      -0.306
  
  
  **********************
  Node Surcharge Summary
  **********************
  
  Surcharging occurs when water rises above the top of the highest conduit.
  ---------------------------------------------------------------------
                                               Max. Height   Min. Depth
                                   Hours       Above Crown    Below Rim
  Node                 Type      Surcharged         Meters       Meters
  ---------------------------------------------------------------------
  WS02006109           JUNCTION        2.50          0.416        1.404
  WS02006110           JUNCTION        0.01          0.544        1.306
  WS02006111           JUNCTION        0.01          0.856        1.014
  WS02006112           JUNCTION        0.02          1.680        0.000
  WS02006113           JUNCTION        0.01          0.705        1.225
  WS02006115           JUNCTION        0.01          0.682        1.568
  WS02006116           JUNCTION        0.01          0.053        2.237
  WS02006228           JUNCTION        2.48          0.810        1.390
  WS02006229           JUNCTION        2.51          0.510        1.940
  WS02006232           JUNCTION        2.55          0.050        1.430
  WS02006235           JUNCTION        2.49          0.051        1.239
  WS02006238           JUNCTION        2.52          0.085        1.345
  WS02006239           JUNCTION        2.50          0.061        1.229
  WS02006240           JUNCTION        2.50          0.076        1.314
  WS02006242           JUNCTION        2.58          0.174        0.646
  WS02006243           JUNCTION        2.51          0.131        0.639
  WS02006245           JUNCTION        2.51          0.145        0.705
  WS02006247           JUNCTION        2.53          0.283        0.477
  WS02006248           JUNCTION        2.51          0.136        0.244
  WS02006249           JUNCTION        2.52          0.217        0.173
  WS02006252           JUNCTION        2.69          1.100        0.000
  WS02006256           JUNCTION        7.85          0.698        1.352
  YS02001580           JUNCTION        0.17          0.330        0.120
  YS02001583           JUNCTION        0.20          0.326        0.174
  YS02001586           JUNCTION        1.38          0.510        0.000
  YS02001590           JUNCTION        1.45          0.742        0.008
  YS02001593           JUNCTION        1.45          0.698        0.142
  YS02001596           JUNCTION        1.66          0.946        0.124
  YS02001600           JUNCTION        1.99          1.190        0.000
  YS02001601           JUNCTION        2.17          1.440        0.000
  YS02001602           JUNCTION        2.11          1.270        0.000
  YS02001605           JUNCTION        2.09          1.170        0.010
  YS02001607           JUNCTION        1.43          0.637        0.043
  YS02001610           JUNCTION        1.45          0.680        0.000
  YS02001613           JUNCTION        1.42          0.640        0.060
  YS02001616           JUNCTION        1.39          0.575        0.035
  YS02001619           JUNCTION        1.38          0.547        0.063
  YS02001622           JUNCTION        1.38          0.534        0.086
  YS02001625           JUNCTION        1.53          0.780        0.000
  YS02001629           JUNCTION        1.23          0.470        0.000
  YS02001633           JUNCTION        1.55          1.060        0.000
  YS02001641           JUNCTION        1.48          0.982        0.118
  YS02001644           JUNCTION        1.46          0.690        0.230
  YS02001647           JUNCTION        0.91          0.329        0.571
  YS02001649           JUNCTION        1.34          0.407        0.643
  YS02001652           JUNCTION        0.67          0.159        0.971
  YS02001757           JUNCTION        1.40          0.401        0.809
  YS02001759           JUNCTION        1.27          0.312        0.898
  YS02001762           JUNCTION        1.19          0.285        0.865
  YS02001765           JUNCTION        0.91          0.241        0.859
  YS02001767           JUNCTION        0.87          0.204        0.826
  YS02001770           JUNCTION        0.84          0.173        0.747
  YS02001774           JUNCTION        1.01          0.271        0.779
  YS02001779           JUNCTION        0.01          0.012        0.668
  YS02001907           JUNCTION        1.50          0.216        0.734
  YS02001910           JUNCTION        0.09          0.076        1.024
  YS02006553           JUNCTION        1.55          0.223        0.967
  YS02006556           JUNCTION        0.72          0.136        1.214
  YS02006558           JUNCTION        0.63          0.116        1.284
  YS02163301           JUNCTION        1.53          0.965        0.065
  YS02163601           JUNCTION        1.57          1.080        0.000
  YS02164001           JUNCTION        1.49          1.100        0.000
  
  
  *********************
  Node Flooding Summary
  *********************
  
  Flooding refers to all water that overflows a node, whether it ponds or not.
  --------------------------------------------------------------------------
                                                             Total   Maximum
                                 Maximum   Time of Max       Flood    Ponded
                        Hours       Rate    Occurrence      Volume     Depth
  Node                 Flooded       LPS   days hr:min    10^6 ltr    Meters
  --------------------------------------------------------------------------
  WS02006112              0.01   1405.86      0  00:00       0.047     0.000
  WS02006252              0.01      0.91      0  01:30       0.000     0.000
  YS02001586              0.01     23.12      0  01:41       0.000     0.000
  YS02001600              0.01      0.69      0  01:41       0.000     0.000
  YS02001601              1.34    224.54      0  02:22       0.472     0.000
  YS02001602              0.26     43.51      0  02:22       0.018     0.000
  YS02001610              0.01      9.81      0  02:22       0.000     0.000
  YS02001625              0.01     13.73      0  02:22       0.000     0.000
  YS02001629              0.01      0.86      0  02:22       0.000     0.000
  YS02001633              0.01      0.14      0  02:22       0.000     0.000
  YS02163601              0.01      0.45      0  02:22       0.000     0.000
  YS02164001              0.01      0.53      0  02:22       0.000     0.000
  
  
  **********************
  Storage Volume Summary
  **********************
  
  --------------------------------------------------------------------------------------------------
                         Average     Avg  Evap Exfil       Maximum     Max    Time of Max    Maximum
                          Volume    Pcnt  Pcnt  Pcnt        Volume    Pcnt     Occurrence    Outflow
  Storage Unit           1000 m3    Full  Loss  Loss       1000 m3    Full    days hr:min        LPS
  --------------------------------------------------------------------------------------------------
  CC-storage               2.385      37     0     0         4.466      70       0  03:01    1766.00
  JK-storage               0.072      25     0     0         0.184      63       0  02:25    2000.00
  
  
  ***********************
  Outfall Loading Summary
  ***********************
  
  -----------------------------------------------------------
                         Flow       Avg       Max       Total
                         Freq      Flow      Flow      Volume
  Outfall Node           Pcnt       LPS       LPS    10^6 ltr
  -----------------------------------------------------------
  CC-1                  15.63    683.00    683.00       4.702
  CC-2                  12.64    683.00    683.00       3.600
  JK-1                   7.36   1000.00   1000.00       2.630
  JK-2                   7.36   1000.00   1000.00       2.630
  WSC                  100.00    252.28    429.54       7.353
  -----------------------------------------------------------
  System                28.60   3618.28    429.54      20.915
  
  
  ********************
  Link Flow Summary
  ********************
  
  -----------------------------------------------------------------------------
                                 Maximum  Time of Max   Maximum    Max/    Max/
                                  |Flow|   Occurrence   |Veloc|    Full    Full
  Link                 Type          LPS  days hr:min     m/sec    Flow   Depth
  -----------------------------------------------------------------------------
  1                    CONDUIT    429.54     0  02:42      2.63    0.15    0.26
  WS02003060WS02003069 CONDUIT    427.56     0  03:15      1.54    0.17    0.29
  WS02003066WSF200     CONDUIT    411.00     0  03:14      2.67    0.07    0.19
  WS02003067WS02003066 CONDUIT    411.01     0  03:14      1.04    0.13    0.38
  WS02003069WS02003072 CONDUIT    427.77     0  02:40      1.26    0.21    0.34
  WS02003072WS02003073 CONDUIT    427.76     0  02:41      1.31    0.92    0.33
  WS02004401WS02004402 CONDUIT   1248.69     0  00:01      2.52    1.50    0.78
  WS02004402WS02004403 CONDUIT    929.44     0  00:01      2.21    1.34    0.81
  WS02004403WS02004404 CONDUIT    877.02     0  00:01      2.01    0.63    0.86
  WS02004404WS02004405 CONDUIT    827.31     0  00:01      2.30    8.11    0.89
  WS02004405WS02004406 CONDUIT    768.45     0  00:02      2.19    1.52    0.88
  WS02004406WS02004407 CONDUIT    411.71     0  02:42      0.89    0.18    0.57
  WS02004407WS02004409 CONDUIT    411.55     0  03:13      2.06    0.15    0.42
  WS02004409WS02004410 CONDUIT    411.46     0  03:13      1.39    0.53    0.58
  WS02004410WS02004411 CONDUIT    411.44     0  03:13      1.32    0.56    0.60
  WS02004411WS02004412 CONDUIT    411.36     0  03:13      1.30    0.58    0.61
  WS02004412WS02004413 CONDUIT    411.25     0  03:14      1.26    0.28    0.70
  WS02004413WS02003067 CONDUIT    410.98     0  03:14      0.96    0.18    0.53
  WS02006109WS02006110 CONDUIT   1446.81     0  00:00      2.88    2.78    1.00
  WS02006110WS02006113 CONDUIT    517.18     0  00:00      1.03    0.47    1.00
  WS02006111WS02006112 CONDUIT   2307.30     0  00:00      9.18    1.10    1.00
  WS02006112WS02006115 CONDUIT    953.54     0  00:00      1.24    0.56    1.00
  WS02006113WS02006111 CONDUIT   1180.41     0  00:00      2.35    1.41    1.00
  WS02006115WS02006116 CONDUIT   1264.47     0  00:00      1.74    1.62    1.00
  WS02006116WS02004401 CONDUIT   1786.04     0  00:00      2.94    2.46    0.77
  WS02006228WS02006109 CONDUIT    869.18     0  00:00      1.91    3.80    1.00
  WS02006229WS02006228 CONDUIT    470.55     0  00:00      0.94    1.56    1.00
  WS02006230WS02006229 CONDUIT    696.39     0  00:00      1.89   15.50    1.00
  WS02006231WS02006230 CONDUIT    400.16     0  02:58      1.91    6.07    0.76
  WS02006232WS02006231 CONDUIT    400.24     0  02:57      1.80    0.84    0.92
  WS02006234WS02006232 CONDUIT    400.21     0  02:57      1.04    0.81    1.00
  WS02006235WS02006234 CONDUIT    401.06     0  02:47      1.04    4.23    0.99
  WS02006238WS02006235 CONDUIT    401.54     0  03:07      1.04    0.90    1.00
  WS02006239WS02006238 CONDUIT    400.82     0  02:54      1.04    1.28    1.00
  WS02006240WS02006239 CONDUIT    400.69     0  02:40      1.08    1.26    1.00
  WS02006242WS02006240 CONDUIT    400.64     0  02:53      1.05    1.59    1.00
  WS02006243WS02006242 CONDUIT    401.23     0  02:53      1.16    0.86    1.00
  WS02006245WS02006243 CONDUIT    401.18     0  03:04      1.28    1.19    1.00
  WS02006247WS02006245 CONDUIT    401.02     0  02:46      1.24    3.18    1.00
  WS02006248WS02006247 CONDUIT    401.14     0  02:46      1.28    0.87    1.00
  WS02006249WS02006248 CONDUIT    400.79     0  02:57      1.31    2.20    1.00
  WS02006251WS02006249 CONDUIT    419.61     0  01:31      1.75    1.21    1.00
  WS02006252WS02006251 CONDUIT    400.99     0  02:58     19.15    1.47    1.00
  WS02006256WS02006235 CONDUIT      9.47     0  00:03      0.77    0.10    1.00
  WSF200WS02003060     CONDUIT    411.07     0  03:15      1.92    0.09    0.24
  YS02001580YS02001583 CONDUIT     68.87     0  01:41      0.51    0.27    1.00
  YS02001583YS02001586 CONDUIT     98.35     0  01:40      0.43    0.15    1.00
  YS02001586YS02001590 CONDUIT    255.63     0  02:22      1.27    0.45    1.00
  YS02001590YS02001593 CONDUIT    255.37     0  02:22      1.04    1.60    1.00
  YS02001593YS02001596 CONDUIT    255.48     0  02:22      1.69    0.40    1.00
  YS02001596YS02001600 CONDUIT    255.66     0  02:22      1.23    0.50    1.00
  YS02001600YS02001601 CONDUIT    255.50     0  02:22      0.90    0.44    1.00
  YS02001601YS02001602 CONDUIT    493.62     0  01:43      1.75    1.78    1.00
  YS02001602YS02001605 CONDUIT    493.58     0  01:43      1.75   10.44    1.00
  YS02001605YS02001607 CONDUIT    493.58     0  01:43      1.75    2.71    1.00
  YS02001607YS02001610 CONDUIT    493.57     0  01:42      0.72    0.47    1.00
  YS02001610YS02001613 CONDUIT    493.66     0  01:42      0.66    0.57    1.00
  YS02001613YS02001616 CONDUIT    494.18     0  01:42      0.72    0.42    1.00
  YS02001616YS02001619 CONDUIT    495.78     0  01:40      0.79    0.86    1.00
  YS02001619YS02001622 CONDUIT    867.25     0  01:42      1.63    1.28    1.00
  YS02001622YS02001625 CONDUIT    867.70     0  01:40      1.10    0.46    1.00
  YS02001625YS02001629 CONDUIT    868.13     0  01:40      1.12    0.41    1.00
  YS02001629YS02163301 CONDUIT    871.99     0  01:41      1.11    1.07    1.00
  YS02001633YS02163601 CONDUIT   1145.98     0  01:41      1.46    1.20    1.00
  YS02001641YS02001644 CONDUIT   1147.90     0  01:41      1.46    3.71    1.00
  YS02001644YS02001647 CONDUIT   1390.18     0  01:41      1.94    0.82    1.00
  YS02001647YS02001649 CONDUIT   1392.37     0  01:41      2.13    0.74    1.00
  YS02001649YS02001757 CONDUIT   1565.79     0  01:42      2.23    0.95    1.00
  YS02001652YS02001649 CONDUIT    259.06     0  02:24      1.23    0.13    1.00
  YS02001655YS02001652 CONDUIT    257.02     0  02:24      1.60    0.12    0.98
  YS02001658YS02001655 CONDUIT    329.84     0  02:29      1.80    0.14    0.79
  YS02001661YS02001658 CONDUIT    325.88     0  02:25      1.95    0.13    0.44
  YS02001664YS02001661 CONDUIT    230.57     0  01:41      1.71    0.07    0.27
  YS02001745YS02001748 CONDUIT    147.23     0  01:41      1.79    0.06    0.32
  YS02001748YS02001751 CONDUIT    162.84     0  02:25      1.50    0.08    0.68
  YS02001751YS02001754 CONDUIT    158.05     0  02:25      1.45    0.08    0.88
  YS02001754YS02001757 CONDUIT    193.44     0  03:01      1.00    0.08    1.00
  YS02001757CaochengTiaoxuchi CONDUIT   2112.00     0  02:22      2.79    0.91    1.00
  YS02001759YS02001757 CONDUIT    469.94     0  02:21      1.28    0.33    1.00
  YS02001762YS02001759 CONDUIT    285.37     0  02:25      0.74    0.33    1.00
  YS02001765YS02001762 CONDUIT    284.57     0  02:25      0.85    0.27    1.00
  YS02001767YS02001765 CONDUIT    285.67     0  02:25      0.92    0.36    1.00
  YS02001770YS02001767 CONDUIT    286.37     0  02:25      0.83    1.13    1.00
  YS02001774YS02001770 CONDUIT     66.55     0  01:39      0.67    0.04    1.00
  YS02001779YS02001774 CONDUIT     44.15     0  01:41      0.17    0.02    1.00
  YS02001783YS02001784 CONDUIT    836.60     0  02:24      1.71    1.15    0.94
  YS02001784YS02001785 CONDUIT    836.10     0  02:25      1.84    1.95    0.85
  YS02001786YS02001788 CONDUIT    836.44     0  02:25      2.28    1.61    0.69
  YS02001788YS02001790 CONDUIT    836.40     0  02:26      2.37    0.62    0.67
  YS02001790YS02001791 CONDUIT    877.85     0  02:27      2.94    0.96    0.58
  YS02001791YS02001793 CONDUIT    845.66     0  02:26      5.95    0.36    0.33
  YS02001793JiankangQianchi CONDUIT    846.14     0  02:26      1.76    0.07    0.59
  YS02001882YS02001884 CONDUIT     73.85     0  01:15      0.39    0.08    0.82
  YS02001884YS02001887 CONDUIT    101.50     0  01:13      0.35    0.14    0.91
  YS02001887YS02001890 CONDUIT    229.10     0  01:39      0.48    0.39    0.97
  YS02001890YS02001895 CONDUIT    212.44     0  01:39      0.41    0.10    0.88
  YS02001895YS02001898 CONDUIT    225.08     0  01:38      0.70    0.39    0.76
  YS02001898YS02001901 CONDUIT    232.74     0  01:43      0.70    0.15    0.84
  YS02001901YS02001904 CONDUIT    223.77     0  01:44      0.37    0.35    0.89
  YS02001904YS02001907 CONDUIT    220.93     0  01:21      0.34    0.08    0.94
  YS02001907YS02006553 CONDUIT    579.22     0  02:27      0.64    0.68    1.00
  YS02001910YS02001907 CONDUIT    403.60     0  01:47      0.66    0.23    1.00
  YS02001915YS02001910 CONDUIT    456.32     0  01:42      1.23    0.23    0.90
  YS02001918YS02001915 CONDUIT    145.98     0  02:28      0.45    0.08    0.63
  YS02001920YS02001918 CONDUIT    139.39     0  02:26      0.67    0.13    0.49
  YS02001923YS02001920 CONDUIT    137.97     0  02:24      0.73    0.06    0.39
  YS02001926YS02001923 CONDUIT    136.58     0  02:22      0.86    0.20    0.26
  YS02001929YS02001926 CONDUIT    136.63     0  02:22      0.95    0.06    0.24
  YS02006553YS02006556 CONDUIT    579.93     0  02:28      0.88    0.50    1.00
  YS02006556YS02006558 CONDUIT    580.20     0  02:27      0.74    0.46    1.00
  YS02006558YS02006561 CONDUIT    837.76     0  02:24      3.33    1.85    0.83
  YS02006561YS02001783 CONDUIT    836.84     0  02:25      2.14    0.43    0.73
  YS02163301YS02001633 CONDUIT    872.06     0  01:41      1.11    0.82    1.00
  YS02163601YS02164001 CONDUIT   1146.19     0  01:41      1.46    1.02    1.00
  YS02164001YS02001641 CONDUIT   1146.08     0  01:41      1.46    1.56    1.00
  CC-R1                PUMP       683.00     0  01:40              1.00
  CC-R2                PUMP       683.00     0  01:52              1.00
  CC-S1                PUMP       200.00     0  00:05              1.00
  CC-S2                PUMP       200.00     0  01:30              1.00
  JK-R1                PUMP      1000.00     0  00:05              1.00
  JK-R2                PUMP      1000.00     0  00:05              1.00
  JK-S                 PUMP         0.00     0  00:00              0.00
  
  
  ***************************
  Flow Classification Summary
  ***************************
  
  -------------------------------------------------------------------------------------
                      Adjusted    ---------- Fraction of Time in Flow Class ---------- 
                       /Actual         Up    Down  Sub   Sup   Up    Down  Norm  Inlet 
  Conduit               Length    Dry  Dry   Dry   Crit  Crit  Crit  Crit  Ltd   Ctrl  
  -------------------------------------------------------------------------------------
  1                       1.00   0.00  0.00  0.00  0.00  1.00  0.00  0.00  0.12  0.00
  WS02003060WS02003069    1.00   0.00  0.00  0.00  0.99  0.01  0.00  0.00  0.59  0.00
  WS02003066WSF200        1.00   0.02  0.00  0.00  0.00  0.98  0.00  0.00  0.97  0.00
  WS02003067WS02003066    1.00   0.01  0.01  0.00  0.98  0.00  0.00  0.00  0.00  0.00
  WS02003069WS02003072    1.00   0.00  0.00  0.00  1.00  0.00  0.00  0.00  0.66  0.00
  WS02003072WS02003073    1.00   0.00  0.00  0.00  0.00  0.00  0.00  1.00  0.00  0.00
  WS02004401WS02004402    1.00   0.00  0.00  0.00  1.00  0.00  0.00  0.00  0.00  0.00
  WS02004402WS02004403    1.00   0.00  0.00  0.00  1.00  0.00  0.00  0.00  0.00  0.00
  WS02004403WS02004404    1.00   0.00  0.00  0.00  1.00  0.00  0.00  0.00  0.00  0.00
  WS02004404WS02004405    1.00   0.00  0.00  0.00  1.00  0.00  0.00  0.00  0.02  0.00
  WS02004405WS02004406    1.00   0.00  0.00  0.00  1.00  0.00  0.00  0.00  0.00  0.00
  WS02004406WS02004407    1.00   0.00  0.00  0.00  1.00  0.00  0.00  0.00  0.00  0.00
  WS02004407WS02004409    1.00   0.00  0.00  0.00  1.00  0.00  0.00  0.00  0.99  0.00
  WS02004409WS02004410    1.00   0.00  0.00  0.00  1.00  0.00  0.00  0.00  0.00  0.00
  WS02004410WS02004411    1.00   0.00  0.00  0.00  1.00  0.00  0.00  0.00  0.00  0.00
  WS02004411WS02004412    1.00   0.00  0.00  0.00  1.00  0.00  0.00  0.00  0.00  0.00
  WS02004412WS02004413    1.00   0.00  0.00  0.00  0.99  0.00  0.00  0.00  0.00  0.00
  WS02004413WS02003067    1.00   0.00  0.01  0.00  0.00  0.00  0.99  0.00  0.00  0.00
  WS02006109WS02006110    1.00   0.00  0.00  0.00  1.00  0.00  0.00  0.00  0.00  0.00
  WS02006110WS02006113    1.00   0.00  0.00  0.00  1.00  0.00  0.00  0.00  0.00  0.00
  WS02006111WS02006112    1.00   0.00  0.00  0.00  1.00  0.00  0.00  0.00  1.00  0.00
  WS02006112WS02006115    1.00   0.00  0.00  0.00  1.00  0.00  0.00  0.00  0.00  0.00
  WS02006113WS02006111    1.00   0.00  0.00  0.00  0.00  1.00  0.00  0.00  0.21  0.00
  WS02006115WS02006116    1.00   0.00  0.00  0.00  1.00  0.00  0.00  0.00  0.00  0.00
  WS02006116WS02004401    1.00   0.00  0.00  0.00  1.00  0.00  0.00  0.00  0.00  0.00
  WS02006228WS02006109    1.00   0.00  0.00  0.00  1.00  0.00  0.00  0.00  0.00  0.00
  WS02006229WS02006228    1.00   0.00  0.00  0.00  1.00  0.00  0.00  0.00  0.00  0.00
  WS02006230WS02006229    1.00   0.00  0.00  0.00  1.00  0.00  0.00  0.00  0.00  0.00
  WS02006231WS02006230    1.00   0.00  0.00  0.00  0.21  0.00  0.79  0.00  0.00  0.00
  WS02006232WS02006231    1.00   0.00  0.00  0.00  1.00  0.00  0.00  0.00  0.00  0.00
  WS02006234WS02006232    1.00   0.00  0.00  0.00  1.00  0.00  0.00  0.00  0.00  0.00
  WS02006235WS02006234    1.00   0.00  0.00  0.00  0.98  0.00  0.01  0.00  0.00  0.00
  WS02006238WS02006235    1.00   0.00  0.00  0.00  1.00  0.00  0.00  0.00  0.00  0.00
  WS02006239WS02006238    1.00   0.00  0.00  0.00  1.00  0.00  0.00  0.00  0.00  0.00
  WS02006240WS02006239    1.00   0.01  0.00  0.00  0.94  0.00  0.00  0.04  0.00  0.00
  WS02006242WS02006240    1.00   0.01  0.00  0.00  0.98  0.00  0.01  0.00  0.00  0.00
  WS02006243WS02006242    1.00   0.01  0.00  0.00  0.98  0.00  0.00  0.01  0.19  0.00
  WS02006245WS02006243    1.00   0.01  0.00  0.00  0.98  0.00  0.00  0.02  0.00  0.00
  WS02006247WS02006245    1.00   0.00  0.00  0.00  0.99  0.00  0.00  0.01  0.00  0.00
  WS02006248WS02006247    1.00   0.00  0.00  0.00  0.99  0.00  0.00  0.01  0.19  0.00
  WS02006249WS02006248    1.00   0.00  0.00  0.00  0.95  0.00  0.05  0.00  0.00  0.00
  WS02006251WS02006249    1.00   0.00  0.00  0.00  1.00  0.00  0.00  0.00  0.16  0.00
  WS02006252WS02006251    1.00   0.00  0.04  0.00  0.00  0.00  0.96  0.00  0.00  0.00
  WS02006256WS02006235    1.00   0.00  0.00  0.00  1.00  0.00  0.00  0.00  0.00  0.00
  WSF200WS02003060        1.00   0.00  0.02  0.00  0.03  0.95  0.00  0.00  0.40  0.00
  YS02001580YS02001583    1.00   0.30  0.52  0.00  0.17  0.00  0.00  0.00  0.61  0.00
  YS02001583YS02001586    1.00   0.34  0.46  0.00  0.20  0.00  0.00  0.00  0.62  0.00
  YS02001586YS02001590    1.00   0.19  0.00  0.00  0.43  0.06  0.00  0.32  0.32  0.00
  YS02001590YS02001593    1.00   0.19  0.00  0.00  0.17  0.00  0.64  0.00  0.00  0.00
  YS02001593YS02001596    1.00   0.19  0.00  0.00  0.22  0.00  0.00  0.59  0.04  0.00
  YS02001596YS02001600    1.00   0.19  0.00  0.00  0.24  0.01  0.00  0.56  0.03  0.00
  YS02001600YS02001601    1.00   0.19  0.01  0.00  0.80  0.00  0.00  0.00  0.54  0.00
  YS02001601YS02001602    1.00   0.19  0.00  0.00  0.81  0.00  0.00  0.00  0.00  0.00
  YS02001602YS02001605    1.00   0.19  0.00  0.00  0.81  0.00  0.00  0.00  0.00  0.00
  YS02001605YS02001607    1.00   0.19  0.00  0.00  0.81  0.00  0.00  0.00  0.00  0.00
  YS02001607YS02001610    1.00   0.19  0.00  0.00  0.80  0.00  0.00  0.00  0.00  0.00
  YS02001610YS02001613    1.00   0.19  0.00  0.00  0.81  0.00  0.00  0.00  0.00  0.00
  YS02001613YS02001616    1.00   0.19  0.00  0.00  0.81  0.00  0.00  0.00  0.00  0.00
  YS02001616YS02001619    1.00   0.19  0.00  0.00  0.81  0.00  0.00  0.00  0.00  0.00
  YS02001619YS02001622    1.00   0.19  0.00  0.00  0.80  0.01  0.00  0.00  0.27  0.00
  YS02001622YS02001625    1.00   0.19  0.00  0.00  0.80  0.01  0.00  0.00  0.01  0.00
  YS02001625YS02001629    1.00   0.19  0.03  0.00  0.22  0.00  0.57  0.00  0.00  0.00
  YS02001629YS02163301    1.00   0.20  0.01  0.00  0.80  0.00  0.00  0.00  0.00  0.00
  YS02001633YS02163601    1.00   0.19  0.00  0.00  0.81  0.00  0.00  0.00  0.00  0.00
  YS02001641YS02001644    1.00   0.19  0.00  0.00  0.81  0.00  0.00  0.00  0.00  0.00
  YS02001644YS02001647    1.00   0.19  0.02  0.00  0.80  0.00  0.00  0.00  0.00  0.00
  YS02001647YS02001649    1.00   0.20  0.01  0.00  0.47  0.32  0.00  0.00  0.52  0.00
  YS02001649YS02001757    1.00   0.00  0.20  0.00  0.55  0.25  0.00  0.00  0.15  0.00
  YS02001652YS02001649    1.00   0.20  0.00  0.00  0.79  0.02  0.00  0.00  0.54  0.00
  YS02001655YS02001652    1.00   0.20  0.00  0.00  0.23  0.00  0.00  0.57  0.09  0.00
  YS02001658YS02001655    1.00   0.20  0.00  0.00  0.65  0.15  0.00  0.00  0.64  0.00
  YS02001661YS02001658    1.00   0.19  0.00  0.00  0.47  0.33  0.00  0.00  0.79  0.00
  YS02001664YS02001661    1.00   0.19  0.00  0.00  0.57  0.24  0.00  0.00  0.87  0.00
  YS02001745YS02001748    1.00   0.19  0.00  0.00  0.11  0.01  0.00  0.69  0.17  0.00
  YS02001748YS02001751    1.00   0.19  0.00  0.00  0.67  0.14  0.00  0.00  0.64  0.00
  YS02001751YS02001754    1.00   0.19  0.00  0.00  0.17  0.03  0.00  0.61  0.06  0.00
  YS02001754YS02001757    1.00   0.00  0.19  0.00  0.80  0.01  0.00  0.00  0.55  0.00
  YS02001757CaochengTiaoxuchi    1.00   0.00  0.00  0.00  0.97  0.03  0.00  0.00  0.54  0.00
  YS02001759YS02001757    1.00   0.00  0.19  0.00  0.79  0.02  0.00  0.00  0.41  0.00
  YS02001762YS02001759    1.00   0.19  0.01  0.00  0.81  0.00  0.00  0.00  0.02  0.00
  YS02001765YS02001762    1.00   0.19  0.00  0.00  0.81  0.00  0.00  0.00  0.48  0.00
  YS02001767YS02001765    1.00   0.19  0.00  0.00  0.81  0.00  0.00  0.00  0.01  0.00
  YS02001770YS02001767    1.00   0.19  0.00  0.00  0.81  0.00  0.00  0.00  0.00  0.00
  YS02001774YS02001770    1.00   0.19  0.00  0.00  0.70  0.01  0.11  0.00  0.00  0.00
  YS02001779YS02001774    1.00   0.19  0.51  0.00  0.30  0.00  0.00  0.00  0.56  0.00
  YS02001783YS02001784    1.00   0.21  0.00  0.00  0.78  0.00  0.00  0.00  0.54  0.00
  YS02001784YS02001785    1.00   0.21  0.00  0.00  0.78  0.00  0.00  0.00  0.35  0.00
  YS02001786YS02001788    1.00   0.22  0.00  0.00  0.53  0.25  0.00  0.00  0.00  0.00
  YS02001788YS02001790    1.00   0.22  0.00  0.00  0.13  0.65  0.00  0.00  0.60  0.00
  YS02001790YS02001791    1.00   0.22  0.00  0.00  0.00  0.78  0.00  0.00  0.21  0.00
  YS02001791YS02001793    1.00   0.22  0.00  0.00  0.00  0.78  0.00  0.00  0.00  0.00
  YS02001793JiankangQianchi    1.00   0.00  0.22  0.00  0.78  0.00  0.00  0.00  0.85  0.00
  YS02001882YS02001884    1.00   0.20  0.00  0.00  0.80  0.00  0.00  0.00  0.00  0.00
  YS02001884YS02001887    1.00   0.19  0.00  0.00  0.80  0.00  0.00  0.00  0.00  0.00
  YS02001887YS02001890    1.00   0.19  0.00  0.00  0.80  0.00  0.01  0.00  0.00  0.00
  YS02001890YS02001895    1.00   0.19  0.01  0.00  0.80  0.00  0.00  0.00  0.00  0.00
  YS02001895YS02001898    1.00   0.20  0.00  0.00  0.78  0.00  0.01  0.00  0.00  0.00
  YS02001898YS02001901    1.00   0.21  0.00  0.00  0.79  0.00  0.00  0.00  0.00  0.00
  YS02001901YS02001904    1.00   0.21  0.00  0.00  0.79  0.00  0.00  0.00  0.00  0.00
  YS02001904YS02001907    1.00   0.19  0.02  0.00  0.79  0.00  0.00  0.00  0.00  0.00
  YS02001907YS02006553    1.00   0.19  0.01  0.00  0.80  0.00  0.00  0.00  0.00  0.00
  YS02001910YS02001907    1.00   0.19  0.00  0.00  0.80  0.00  0.00  0.01  0.00  0.00
  YS02001915YS02001910    1.00   0.19  0.00  0.00  0.79  0.02  0.00  0.00  0.00  0.00
  YS02001918YS02001915    1.00   0.19  0.02  0.00  0.79  0.00  0.00  0.00  0.63  0.00
  YS02001920YS02001918    1.00   0.20  0.01  0.00  0.79  0.00  0.00  0.00  0.00  0.00
  YS02001923YS02001920    1.00   0.20  0.00  0.00  0.79  0.01  0.00  0.00  0.81  0.00
  YS02001926YS02001923    1.00   0.19  0.01  0.00  0.00  0.00  0.80  0.00  0.00  0.00
  YS02001929YS02001926    1.00   0.19  0.00  0.00  0.80  0.01  0.00  0.00  0.87  0.00
  YS02006553YS02006556    1.00   0.19  0.00  0.00  0.80  0.00  0.00  0.00  0.00  0.00
  YS02006556YS02006558    1.00   0.19  0.00  0.00  0.81  0.00  0.00  0.00  0.00  0.00
  YS02006558YS02006561    1.00   0.21  0.00  0.00  0.00  0.79  0.00  0.00  0.13  0.00
  YS02006561YS02001783    1.00   0.21  0.00  0.00  0.10  0.69  0.00  0.00  0.61  0.00
  YS02163301YS02001633    1.00   0.19  0.01  0.00  0.80  0.00  0.00  0.00  0.00  0.00
  YS02163601YS02164001    1.00   0.19  0.01  0.00  0.80  0.00  0.00  0.00  0.00  0.00
  YS02164001YS02001641    1.00   0.19  0.01  0.00  0.80  0.00  0.00  0.00  0.00  0.00
  
  
  *************************
  Conduit Surcharge Summary
  *************************
  
  ----------------------------------------------------------------------------
                                                           Hours        Hours 
                         --------- Hours Full --------   Above Full   Capacity
  Conduit                Both Ends  Upstream  Dnstream   Normal Flow   Limited
  ----------------------------------------------------------------------------
  WS02004401WS02004402        0.01      0.01      0.01      0.01         0.01
  WS02004402WS02004403        0.01      0.01      0.01      0.02         0.01
  WS02004404WS02004405        0.01      0.01      0.01      6.40         0.01
  WS02004405WS02004406        0.01      0.01      0.01      0.01         0.01
  WS02006109WS02006110        0.01      0.01      2.56      0.01         0.01
  WS02006110WS02006113        0.01      0.01      2.52      0.01         0.01
  WS02006111WS02006112        0.01      0.01      2.76      0.01         0.01
  WS02006112WS02006115        0.01      0.01      0.01      0.01         0.01
  WS02006113WS02006111        0.01      0.01      0.01      0.01         0.01
  WS02006115WS02006116        0.01      0.01      0.01      0.01         0.01
  WS02006116WS02004401        0.01      0.01      0.01      0.02         0.01
  WS02006228WS02006109        2.49      2.55      2.50      2.82         2.49
  WS02006229WS02006228        2.48      2.51      2.48      2.68         2.48
  WS02006230WS02006229        2.59      2.66      2.61      6.48         2.59
  WS02006231WS02006230        0.01      0.01      0.01      6.35         0.01
  WS02006232WS02006231        0.01      0.01      2.55      0.01         0.01
  WS02006234WS02006232        2.45      2.45      2.55      0.01         0.01
  WS02006235WS02006234        0.01      0.01      2.49      6.30         0.01
  WS02006238WS02006235        2.50      2.50      2.56      0.01         0.01
  WS02006239WS02006238        2.52      2.54      2.52      2.65         2.52
  WS02006240WS02006239        2.50      2.51      2.50      2.64         2.50
  WS02006242WS02006240        2.50      2.50      2.60      2.70         0.01
  WS02006243WS02006242        2.52      2.52      2.58      0.01         0.01
  WS02006245WS02006243        2.51      2.52      2.51      2.64         2.51
  WS02006247WS02006245        2.51      2.54      2.51      6.31         2.51
  WS02006248WS02006247        2.51      2.51      2.53      0.01         0.01
  WS02006249WS02006248        2.51      2.51      2.52      6.29         0.01
  WS02006251WS02006249        2.52      2.53      2.52      2.65         2.52
  WS02006252WS02006251        2.65      2.65      2.68      2.66         0.01
  WS02006256WS02006235        6.33      6.33      7.85      0.01         0.01
  YS02001580YS02001583        0.17      0.17      0.58      0.01         0.01
  YS02001583YS02001586        0.20      0.20      1.38      0.01         0.01
  YS02001586YS02001590        1.39      1.39      1.45      0.01         0.01
  YS02001590YS02001593        1.45      1.45      1.47      1.44         0.01
  YS02001593YS02001596        1.47      1.47      1.66      0.01         0.01
  YS02001596YS02001600        1.76      1.76      1.99      0.01         0.01
  YS02001600YS02001601        2.02      2.02      2.17      0.01         0.01
  YS02001601YS02001602        2.11      2.11      2.20      2.01         0.01
  YS02001602YS02001605        2.09      2.09      2.11      2.71         0.01
  YS02001605YS02001607        2.06      2.09      2.06      2.14         2.06
  YS02001607YS02001610        1.43      1.43      1.45      0.01         0.01
  YS02001610YS02001613        1.42      1.42      1.45      0.01         0.01
  YS02001613YS02001616        1.39      1.39      1.42      0.01         0.01
  YS02001616YS02001619        1.38      1.38      1.39      0.01         0.01
  YS02001619YS02001622        1.38      1.38      1.38      1.46         1.36
  YS02001622YS02001625        1.38      1.38      1.53      0.01         0.01
  YS02001625YS02001629        1.23      1.23      1.53      0.01         0.01
  YS02001629YS02163301        1.52      1.52      1.53      0.31         0.56
  YS02001633YS02163601        1.55      1.55      1.57      1.37         1.30
  YS02001641YS02001644        1.46      1.48      1.46      2.20         1.46
  YS02001644YS02001647        0.91      0.91      1.46      0.01         0.01
  YS02001647YS02001649        0.91      0.91      1.34      0.01         0.01
  YS02001649YS02001757        1.34      1.34      1.40      0.01         0.01
  YS02001652YS02001649        0.84      0.84      1.34      0.01         0.01
  YS02001655YS02001652        0.01      0.01      0.67      0.01         0.01
  YS02001754YS02001757        0.17      0.17      1.40      0.01         0.01
  YS02001757CaochengTiaoxuchi        1.40      1.40      2.64      0.01         0.01
  YS02001759YS02001757        1.27      1.27      1.40      0.01         0.01
  YS02001762YS02001759        1.19      1.19      1.27      0.01         0.01
  YS02001765YS02001762        0.91      0.91      1.19      0.01         0.01
  YS02001767YS02001765        0.87      0.87      0.91      0.01         0.01
  YS02001770YS02001767        0.87      0.87      0.87      0.24         0.41
  YS02001774YS02001770        0.84      0.84      1.01      0.01         0.01
  YS02001779YS02001774        0.01      0.01      1.01      0.01         0.01
  YS02001783YS02001784        0.01      0.01      0.01      0.91         0.01
  YS02001784YS02001785        0.01      0.01      0.01      1.85         0.01
  YS02001786YS02001788        0.01      0.01      0.01      1.61         0.01
  YS02001793JiankangQianchi        0.01      0.01      6.82      0.01         0.01
  YS02001890YS02001895        0.01      0.01      0.08      0.01         0.01
  YS02001904YS02001907        0.01      0.01      1.56      0.01         0.01
  YS02001907YS02006553        1.88      1.88      1.93      0.01         0.01
  YS02001910YS02001907        0.09      0.09      1.50      0.01         0.01
  YS02001915YS02001910        0.01      0.01      0.09      0.01         0.01
  YS02006553YS02006556        0.72      0.72      1.55      0.01         0.01
  YS02006556YS02006558        1.21      1.21      1.59      0.01         0.01
  YS02006558YS02006561        0.01      0.63      0.01      1.75         0.01
  YS02163301YS02001633        1.53      1.53      1.56      0.01         0.01
  YS02163601YS02164001        1.49      1.49      1.57      0.04         0.01
  YS02164001YS02001641        1.48      1.49      1.48      1.69         1.48
  
  
  ***************
  Pumping Summary
  ***************
  
  ---------------------------------------------------------------------------------------------------------
                                                  Min       Avg       Max     Total     Power    % Time Off
                        Percent   Number of      Flow      Flow      Flow    Volume     Usage    Pump Curve
  Pump                 Utilized   Start-Ups       LPS       LPS       LPS  10^6 ltr     Kw-hr    Low   High
  ---------------------------------------------------------------------------------------------------------
  CC-R1                   23.90           1      0.00    683.00    683.00     4.701     89.13    0.0    0.0
  CC-R2                   18.30           1      0.00    683.00    683.00     3.600     68.78    0.0    0.0
  CC-S1                   79.61          19      0.00    200.00    200.00     4.585     27.42    0.0    0.0
  CC-S2                   33.18           1      0.00    200.00    200.00     1.911     10.23    0.0    0.0
  JK-R1                    9.16          58      0.00   1000.00   1000.00     2.639     21.94    0.0    0.0
  JK-R2                    9.16          58      0.00   1000.00   1000.00     2.639     21.94    0.0    0.0
  JK-S                     0.00           0      0.00      0.00      0.00     0.000      0.00    0.0    0.0
  

  Analysis begun on:  Fri Sep  8 22:11:30 2023
  Analysis ended on:  Fri Sep  8 22:11:44 2023
  Total elapsed time: 00:00:14