
  OWA STORM WATER MANAGEMENT MODEL - VERSION v5.1.14 (OWA 2022-07-31)
  --------------------------------------------------------------

  WARNING 04: minimum elevation drop used for Conduit WS02004404WS02004405
  WARNING 03: negative offset ignored for Link YS02001904YS02001907
  
  *********************************************************
  NOTE: The summary statistics displayed in this report are
  based on results found at every computational time step,  
  not just on results from each reporting time step.
  *********************************************************
  
  ****************
  Analysis Options
  ****************
  Flow Units ............... LPS
  Process Models:
    Rainfall/Runoff ........ YES
    RDII ................... NO
    Snowmelt ............... NO
    Groundwater ............ NO
    Flow Routing ........... YES
    Ponding Allowed ........ NO
    Water Quality .......... NO
  Infiltration Method ...... HORTON
  Flow Routing Method ...... DYNWAVE
  Surcharge Method ......... EXTRAN
  Starting Date ............ 08/28/2015 08:00:00
  Ending Date .............. 08/28/2015 16:00:00
  Antecedent Dry Days ...... 8.0
  Report Time Step ......... 00:01:00
  Wet Time Step ............ 00:01:00
  Dry Time Step ............ 00:01:00
  Routing Time Step ........ 30.00 sec
  Variable Time Step ....... YES
  Maximum Trials ........... 8
  Number of Threads ........ 1
  Head Tolerance ........... 0.001500 m
  
  
  **************************        Volume         Depth
  Runoff Quantity Continuity     hectare-m            mm
  **************************     ---------       -------
  Total Precipitation ......         1.724        51.961
  Evaporation Loss .........         0.000         0.000
  Infiltration Loss ........         0.097         2.926
  Surface Runoff ...........         1.594        48.052
  Final Storage ............         0.033         0.994
  Continuity Error (%) .....        -0.021
  
  
  **************************        Volume        Volume
  Flow Routing Continuity        hectare-m      10^6 ltr
  **************************     ---------     ---------
  Dry Weather Inflow .......         0.000         0.000
  Wet Weather Inflow .......         1.595        15.948
  Groundwater Inflow .......         0.000         0.000
  RDII Inflow ..............         0.000         0.000
  External Inflow ..........         0.083         0.834
  External Outflow .........         1.449        14.495
  Flooding Loss ............         0.324         3.236
  Evaporation Loss .........         0.000         0.000
  Exfiltration Loss ........         0.000         0.000
  Initial Stored Volume ....         0.243         2.431
  Final Stored Volume ......         0.181         1.805
  Continuity Error (%) .....        -1.685
  
  
  *************************
  Highest Continuity Errors
  *************************
  Node YS02001583 (-6.20%)
  Node YS02001884 (3.90%)
  Node YS02001774 (1.20%)
  
  
  ***************************
  Time-Step Critical Elements
  ***************************
  Link WS02006252WS02006251 (80.95%)
  Link WS02006235WS02006234 (6.77%)
  Link WS02004404WS02004405 (3.00%)
  Link YS02001791YS02001793 (2.45%)
  Link WS02006238WS02006235 (1.81%)
  
  
  ********************************
  Highest Flow Instability Indexes
  ********************************
  Link WS02006113WS02006111 (55)
  Link WS02006111WS02006112 (29)
  Link WS02006256WS02006235 (10)
  Link WS02006110WS02006113 (7)
  Link YS02006558YS02006561 (5)
  
  
  *************************
  Routing Time Step Summary
  *************************
  Minimum Time Step           :     0.00 sec
  Average Time Step           :     1.11 sec
  Maximum Time Step           :    30.00 sec
  Percent in Steady State     :    -0.00
  Average Iterations per Step :     2.43
  Percent Not Converging      :     4.87
  
  
  ***************************
  Subcatchment Runoff Summary
  ***************************
  
  ------------------------------------------------------------------------------------------------------------------------------
                            Total      Total      Total      Total     Imperv       Perv      Total       Total     Peak  Runoff
                           Precip      Runon       Evap      Infil     Runoff     Runoff     Runoff      Runoff   Runoff   Coeff
  Subcatchment                 mm         mm         mm         mm         mm         mm         mm    10^6 ltr      LPS
  ------------------------------------------------------------------------------------------------------------------------------
  sub60                     51.96       0.00       0.00       1.77      44.52       4.46      48.98        0.64   429.68   0.943
  sub61                     51.96       0.00       0.00       2.57      41.99       6.27      48.26        0.89   594.45   0.929
  sub62                     51.96       0.00       0.00       1.18      46.52       2.98      49.49        1.36   831.63   0.953
  sub63                     51.96       0.00       0.00       4.73      35.92      10.35      46.27        1.05   656.67   0.890
  sub64                     51.96       0.00       0.00       2.39      42.96       5.41      48.36        1.16   670.10   0.931
  sub65                     51.96       0.00       0.00       2.07      43.95       4.69      48.64        1.34   748.27   0.936
  sub66                     51.96       0.00       0.00       5.81      35.82       9.26      45.07        2.10   956.44   0.867
  sub67                     51.96       0.00       0.00       1.14      46.56       3.02      49.58        0.92   646.97   0.954
  sub68                     51.96       0.00       0.00       2.13      43.50       5.15      48.65        1.34   854.28   0.936
  sub69                     51.96       0.00       0.00       1.88      44.05       5.92      49.97        1.85   998.41   0.962
  sub70                     51.96       0.00       0.00       6.21      34.13      11.46      45.59        1.32   537.66   0.877
  sub71                     51.96       0.00       0.00       1.21      46.48       2.95      49.42        1.29   727.59   0.951
  sub72                     51.96       0.00       0.00       1.08      46.92       2.56      49.48        0.68   348.36   0.952
  
  
  ******************
  Node Depth Summary
  ******************
  
  ---------------------------------------------------------------------------------
                                 Average  Maximum  Maximum  Time of Max    Reported
                                   Depth    Depth      HGL   Occurrence   Max Depth
  Node                 Type       Meters   Meters   Meters  days hr:min      Meters
  ---------------------------------------------------------------------------------
  WS02003060           JUNCTION     0.24     0.38     5.31     0  02:29        0.38
  WS02003066           JUNCTION     0.20     0.29     5.85     0  02:28        0.29
  WS02003067           JUNCTION     0.52     0.69     6.01     0  02:28        0.69
  WS02003069           JUNCTION     0.26     0.42     5.00     0  02:29        0.42
  WS02003072           JUNCTION     0.33     0.49     4.86     0  02:30        0.49
  WS02003073           JUNCTION     0.19     0.29     4.36     0  02:31        0.29
  WS02004401           JUNCTION     0.59     0.84     6.84     0  02:26        0.84
  WS02004402           JUNCTION     0.63     0.87     6.83     0  02:26        0.87
  WS02004403           JUNCTION     0.65     0.88     6.81     0  02:26        0.88
  WS02004404           JUNCTION     0.73     0.96     6.81     0  02:26        0.95
  WS02004405           JUNCTION     0.73     0.95     6.80     0  02:26        0.95
  WS02004406           JUNCTION     0.74     0.95     6.78     0  02:26        0.95
  WS02004407           JUNCTION     0.18     0.29     6.61     0  02:26        0.29
  WS02004409           JUNCTION     0.40     0.65     6.42     0  02:27        0.65
  WS02004410           JUNCTION     0.42     0.66     6.38     0  02:27        0.66
  WS02004411           JUNCTION     0.45     0.68     6.36     0  02:27        0.68
  WS02004412           JUNCTION     0.47     0.68     6.32     0  02:28        0.68
  WS02004413           JUNCTION     0.63     0.85     6.32     0  02:28        0.84
  WS02006109           JUNCTION     0.64     1.24     7.85     0  00:00        1.01
  WS02006110           JUNCTION     0.65     1.45     8.04     0  00:00        0.97
  WS02006111           JUNCTION     0.18     1.67     8.37     0  00:00        0.56
  WS02006112           JUNCTION     0.75     2.68     8.56     0  00:00        1.29
  WS02006113           JUNCTION     0.27     1.50     8.40     0  00:00        0.45
  WS02006115           JUNCTION     0.47     1.69     7.83     0  00:00        0.86
  WS02006116           JUNCTION     0.56     1.11     7.15     0  00:00        0.82
  WS02006228           JUNCTION     0.62     1.64     8.29     0  00:00        1.04
  WS02006229           JUNCTION     0.59     1.31     8.00     0  00:00        1.03
  WS02006230           JUNCTION     0.57     1.31     8.05     0  02:10        1.14
  WS02006231           JUNCTION     0.40     1.02     8.14     0  02:10        0.87
  WS02006232           JUNCTION     0.53     1.19     8.23     0  02:10        1.08
  WS02006234           JUNCTION     0.44     1.20     8.36     0  02:20        1.19
  WS02006235           JUNCTION     0.47     1.33     8.49     0  02:20        1.32
  WS02006238           JUNCTION     0.50     1.37     8.52     0  02:20        1.35
  WS02006239           JUNCTION     0.47     1.35     8.56     0  02:20        1.29
  WS02006240           JUNCTION     0.43     1.30     8.59     0  02:20        1.20
  WS02006242           JUNCTION     0.51     1.36     8.62     0  02:20        1.27
  WS02006243           JUNCTION     0.41     1.22     8.64     0  02:20        1.17
  WS02006245           JUNCTION     0.41     1.18     8.67     0  02:20        1.14
  WS02006247           JUNCTION     0.44     1.17     8.67     0  02:20        1.15
  WS02006248           JUNCTION     0.40     1.10     8.68     0  02:20        1.09
  WS02006249           JUNCTION     0.44     1.09     8.69     0  02:04        1.09
  WS02006251           JUNCTION     0.43     1.40     9.07     0  02:04        1.11
  WS02006252           JUNCTION     0.36     1.50     9.74     0  02:00        0.67
  WS02006256           JUNCTION     0.72     2.35     9.28     0  01:59        2.35
  WSF200               JUNCTION     0.17     0.28     5.52     0  02:28        0.28
  YS02001580           JUNCTION     0.04     1.05     9.59     0  01:57        1.05
  YS02001583           JUNCTION     0.07     1.14     9.64     0  01:56        0.82
  YS02001586           JUNCTION     0.11     1.13     9.30     0  01:56        1.13
  YS02001590           JUNCTION     0.18     1.40     9.26     0  01:54        1.40
  YS02001593           JUNCTION     0.12     1.34     9.20     0  01:57        1.34
  YS02001596           JUNCTION     0.17     1.69     9.11     0  01:57        1.69
  YS02001600           JUNCTION     0.21     1.87     9.00     0  01:55        1.87
  YS02001601           JUNCTION     0.36     2.06     8.90     0  01:55        2.06
  YS02001602           JUNCTION     0.29     1.87     8.77     0  01:56        1.87
  YS02001605           JUNCTION     0.27     1.78     8.68     0  01:56        1.78
  YS02001607           JUNCTION     0.28     1.68     8.53     0  01:56        1.64
  YS02001610           JUNCTION     0.31     1.68     8.48     0  01:56        1.68
  YS02001613           JUNCTION     0.28     1.70     8.54     0  01:56        1.66
  YS02001616           JUNCTION     0.22     1.61     8.52     0  01:56        1.61
  YS02001619           JUNCTION     0.20     1.61     8.54     0  01:56        1.61
  YS02001622           JUNCTION     0.19     1.62     8.52     0  01:56        1.58
  YS02001625           JUNCTION     0.42     1.78     8.38     0  01:56        1.78
  YS02001629           JUNCTION     0.27     1.85     8.40     0  01:56        1.85
  YS02001633           JUNCTION     0.34     2.04     8.49     0  02:00        2.03
  YS02001641           JUNCTION     0.34     2.09     8.53     0  02:18        2.09
  YS02001644           JUNCTION     0.33     1.92     8.35     0  02:00        1.92
  YS02001647           JUNCTION     0.17     1.81     8.42     0  02:00        1.71
  YS02001649           JUNCTION     0.19     2.05     8.44     0  02:00        1.90
  YS02001652           JUNCTION     0.12     2.16     8.76     0  02:00        1.73
  YS02001655           JUNCTION     0.09     2.20     9.05     0  02:00        1.52
  YS02001658           JUNCTION     0.06     2.30     9.44     0  02:00        1.28
  YS02001661           JUNCTION     0.10     1.40     8.81     0  02:01        1.07
  YS02001664           JUNCTION     0.03     0.63     8.55     0  02:01        0.53
  YS02001745           JUNCTION     0.04     0.94     8.45     0  02:01        0.83
  YS02001748           JUNCTION     0.06     1.79     8.87     0  02:01        1.15
  YS02001751           JUNCTION     0.07     2.20     9.08     0  02:00        1.33
  YS02001754           JUNCTION     0.10     2.20     8.81     0  02:00        1.58
  YS02001757           JUNCTION     0.21     2.07     8.33     0  02:01        1.90
  YS02001759           JUNCTION     0.16     2.04     8.41     0  02:01        1.90
  YS02001762           JUNCTION     0.15     2.10     8.50     0  01:59        1.90
  YS02001765           JUNCTION     0.14     2.03     8.48     0  01:59        1.87
  YS02001767           JUNCTION     0.14     2.03     8.52     0  01:59        1.86
  YS02001770           JUNCTION     0.16     1.95     8.44     0  01:59        1.90
  YS02001774           JUNCTION     0.21     2.02     8.44     0  01:59        1.95
  YS02001779           JUNCTION     0.09     1.68     8.37     0  01:59        1.68
  YS02001783           JUNCTION     0.14     1.59     7.73     0  01:59        1.22
  YS02001784           JUNCTION     0.14     1.38     7.45     0  01:59        1.10
  YS02001786           JUNCTION     0.12     1.17     7.20     0  01:59        0.87
  YS02001788           JUNCTION     0.09     0.62     6.60     0  02:02        0.62
  YS02001790           JUNCTION     0.10     0.72     6.37     0  02:02        0.71
  YS02001791           JUNCTION     0.06     0.44     5.91     0  02:10        0.43
  YS02001793           JUNCTION     0.03     0.28     5.11     0  02:00        0.28
  YS02001882           JUNCTION     0.18     1.83     8.55     0  01:58        1.64
  YS02001884           JUNCTION     0.26     1.90     8.52     0  01:58        1.76
  YS02001887           JUNCTION     0.32     2.00     8.54     0  01:58        2.00
  YS02001890           JUNCTION     0.35     1.81     8.32     0  01:58        1.81
  YS02001895           JUNCTION     0.16     1.75     8.50     0  01:58        1.56
  YS02001898           JUNCTION     0.17     1.77     8.51     0  01:58        1.56
  YS02001901           JUNCTION     0.26     1.83     8.44     0  01:58        1.67
  YS02001904           JUNCTION     0.24     1.68     8.31     0  01:58        1.63
  YS02001907           JUNCTION     0.50     1.96     8.25     0  01:58        1.96
  YS02001910           JUNCTION     0.34     2.10     8.61     0  01:58        1.95
  YS02001915           JUNCTION     0.18     2.00     8.72     0  01:58        1.88
  YS02001918           JUNCTION     0.08     1.81     8.88     0  01:59        1.81
  YS02001920           JUNCTION     0.14     2.14     9.15     0  01:59        2.14
  YS02001923           JUNCTION     0.07     2.03     9.29     0  01:59        2.03
  YS02001926           JUNCTION     0.10     1.90     9.35     0  01:59        1.90
  YS02001929           JUNCTION     0.05     1.78     9.47     0  01:59        1.67
  YS02006553           JUNCTION     0.50     2.07     8.36     0  01:59        1.98
  YS02006556           JUNCTION     0.48     2.17     8.48     0  01:59        1.96
  YS02006558           JUNCTION     0.52     2.24     8.51     0  01:59        2.00
  YS02006561           JUNCTION     0.08     1.43     8.09     0  01:59        0.88
  YS02163301           JUNCTION     0.30     1.93     8.45     0  02:00        1.92
  YS02163601           JUNCTION     0.37     2.08     8.48     0  02:18        2.08
  YS02164001           JUNCTION     0.32     2.10     8.56     0  02:18        2.10
  CC-1                 OUTFALL      0.00     0.00     0.00     0  00:00        0.00
  CC-2                 OUTFALL      0.00     0.00     0.00     0  00:00        0.00
  JK-1                 OUTFALL      0.00     0.00     0.00     0  00:00        0.00
  JK-2                 OUTFALL      0.00     0.00     0.00     0  00:00        0.00
  WSC                  OUTFALL      0.18     0.29     0.96     0  02:31        0.29
  CC-storage           STORAGE      0.77     1.58     7.08     0  02:26        1.58
  JK-storage           STORAGE      1.34     4.20     5.00     0  01:59        4.19
  
  
  *******************
  Node Inflow Summary
  *******************
  
  -------------------------------------------------------------------------------------------------
                                  Maximum  Maximum                  Lateral       Total        Flow
                                  Lateral    Total  Time of Max      Inflow      Inflow     Balance
                                   Inflow   Inflow   Occurrence      Volume      Volume       Error
  Node                 Type           LPS      LPS  days hr:min    10^6 ltr    10^6 ltr     Percent
  -------------------------------------------------------------------------------------------------
  WS02003060           JUNCTION     16.53   531.67     0  02:28       0.476        6.57       0.035
  WS02003066           JUNCTION      0.00   514.04     0  02:28           0         6.1       0.021
  WS02003067           JUNCTION      0.00   513.62     0  02:28           0         6.1       0.067
  WS02003069           JUNCTION      0.32   531.80     0  02:29     0.00922        6.58       0.056
  WS02003072           JUNCTION      0.00   529.77     0  02:30           0        6.58       0.100
  WS02003073           JUNCTION      1.82   530.20     0  02:30      0.0524        6.62       0.080
  WS02004401           JUNCTION      0.00  1786.04     0  00:00           0        6.21       0.174
  WS02004402           JUNCTION      0.00  1248.69     0  00:01           0         6.2       0.175
  WS02004403           JUNCTION      0.00   929.44     0  00:01           0        6.19       0.173
  WS02004404           JUNCTION      0.00   877.02     0  00:01           0        6.18       0.169
  WS02004405           JUNCTION      0.00   827.31     0  00:01           0        6.17       0.178
  WS02004406           JUNCTION      0.00   768.45     0  00:02           0        6.16       0.347
  WS02004407           JUNCTION      0.00   527.02     0  02:26           0        6.14       0.016
  WS02004409           JUNCTION      0.00   526.40     0  02:26           0        6.14       0.041
  WS02004410           JUNCTION      0.00   522.00     0  02:27           0        6.13       0.069
  WS02004411           JUNCTION      0.00   519.54     0  02:27           0        6.13       0.090
  WS02004412           JUNCTION      0.00   517.63     0  02:27           0        6.12       0.117
  WS02004413           JUNCTION      0.00   515.27     0  02:28           0        6.12       0.216
  WS02006109           JUNCTION      0.00  1446.81     0  00:00           0        6.11      -0.064
  WS02006110           JUNCTION      0.00   553.10     0  02:10           0        6.09      -0.896
  WS02006111           JUNCTION      0.00  1180.41     0  00:00           0        6.14      -0.696
  WS02006112           JUNCTION      0.00  2307.30     0  00:00           0        6.18       0.002
  WS02006113           JUNCTION      0.00   566.60     0  02:21           0         6.1      -0.622
  WS02006115           JUNCTION      0.00   953.54     0  00:00           0        6.15      -0.581
  WS02006116           JUNCTION      0.00  1264.47     0  00:00           0        6.19      -0.378
  WS02006228           JUNCTION      0.00   869.18     0  00:00           0         6.1       0.001
  WS02006229           JUNCTION      0.00   551.92     0  02:10           0        6.08      -0.048
  WS02006230           JUNCTION     10.28   706.67     0  00:00       0.296        6.07       0.034
  WS02006231           JUNCTION      0.00   575.27     0  02:10           0        5.77       0.006
  WS02006232           JUNCTION      0.00   574.51     0  02:10           0        5.76       0.069
  WS02006234           JUNCTION      0.00   569.53     0  02:10           0        5.76      -0.012
  WS02006235           JUNCTION      0.00   562.78     0  02:10           0        5.76       0.036
  WS02006238           JUNCTION      0.00   422.18     0  02:15           0        5.56      -0.030
  WS02006239           JUNCTION      0.00   421.40     0  02:15           0        5.55      -0.056
  WS02006240           JUNCTION      0.00   418.82     0  02:05           0        5.55       0.002
  WS02006242           JUNCTION      0.00   418.87     0  02:05           0        5.56       0.036
  WS02006243           JUNCTION      0.00   418.23     0  02:05           0        5.55      -0.055
  WS02006245           JUNCTION      0.00   417.95     0  02:15           0        5.56       0.104
  WS02006247           JUNCTION      0.00   418.00     0  02:15           0        5.56       0.019
  WS02006248           JUNCTION      0.00   419.51     0  02:15           0        5.56      -0.006
  WS02006249           JUNCTION      0.00   426.89     0  02:04           0        5.61       0.126
  WS02006251           JUNCTION      0.00   407.13     0  02:04           0        5.61       0.005
  WS02006252           JUNCTION      0.00   400.00     0  02:00           0         5.6      -0.177
  WS02006256           JUNCTION      0.00   300.00     0  01:59           0       0.281      -0.194
  WSF200               JUNCTION      0.00   514.27     0  02:28           0         6.1       0.008
  YS02001580           JUNCTION      0.00   122.55     0  01:56           0      0.0045       2.630
  YS02001583           JUNCTION      0.00   198.63     0  01:56           0      0.0154      -5.835
  YS02001586           JUNCTION    537.66   537.74     0  02:04        1.32        1.33       0.097
  YS02001590           JUNCTION      0.00   317.91     0  02:13           0        1.16      -0.047
  YS02001593           JUNCTION      0.00   318.01     0  02:10           0        1.16       0.000
  YS02001596           JUNCTION      0.00   317.96     0  02:10           0        1.16      -0.004
  YS02001600           JUNCTION      0.00   318.00     0  02:10           0        1.16       0.005
  YS02001601           JUNCTION    998.41  1315.93     0  02:03        1.85        3.01       0.006
  YS02001602           JUNCTION      0.00   531.97     0  01:56           0        2.07       0.015
  YS02001605           JUNCTION      0.00   531.48     0  01:56           0        1.98       0.022
  YS02001607           JUNCTION      0.00   531.33     0  01:56           0        1.98       0.094
  YS02001610           JUNCTION      0.00   541.01     0  01:56           0        2.01       0.095
  YS02001613           JUNCTION      0.00   547.74     0  01:56           0        1.69       0.089
  YS02001616           JUNCTION      0.00   549.73     0  01:56           0        1.69       0.015
  YS02001619           JUNCTION    956.44   956.44     0  02:04         2.1        3.76      -0.005
  YS02001622           JUNCTION      0.00   931.54     0  01:58           0        3.72      -0.006
  YS02001625           JUNCTION      0.00  1064.37     0  02:04           0        3.78       0.221
  YS02001629           JUNCTION      0.00   933.33     0  01:56           0        3.16       0.012
  YS02001633           JUNCTION    748.27  1403.32     0  01:58        1.34        4.42       0.071
  YS02001641           JUNCTION      0.00  1402.42     0  01:58           0        4.35       0.058
  YS02001644           JUNCTION    670.10  1832.91     0  01:58        1.16        5.51       0.059
  YS02001647           JUNCTION      0.00  1832.91     0  01:58           0        5.41       0.003
  YS02001649           JUNCTION      0.00  2103.84     0  01:58           0        6.46      -0.002
  YS02001652           JUNCTION      0.00   811.28     0  02:02           0        1.05      -0.098
  YS02001655           JUNCTION      0.00   811.25     0  02:02           0        1.05       0.032
  YS02001658           JUNCTION      0.00   810.28     0  02:02           0        1.05      -0.074
  YS02001661           JUNCTION      0.00   765.98     0  02:01           0        1.05       0.006
  YS02001664           JUNCTION    656.67   656.67     0  02:02        1.05        1.05      -0.009
  YS02001745           JUNCTION    429.68   510.06     0  02:00       0.644       0.645       0.247
  YS02001748           JUNCTION      0.00   558.69     0  02:01           0       0.645      -0.421
  YS02001751           JUNCTION      0.00   560.68     0  02:01           0       0.652       0.085
  YS02001754           JUNCTION      0.00   562.79     0  02:01           0       0.657      -0.196
  YS02001757           JUNCTION      0.00  3397.71     0  02:01           0        9.33       0.034
  YS02001759           JUNCTION    594.45  1376.46     0  02:01       0.886        2.22      -0.014
  YS02001762           JUNCTION      0.00   791.33     0  02:01           0        1.33       0.003
  YS02001765           JUNCTION      0.00   799.44     0  02:01           0        1.33      -0.002
  YS02001767           JUNCTION      0.00   803.29     0  02:01           0        1.33      -0.005
  YS02001770           JUNCTION    831.63   831.63     0  02:02        1.36         1.4      -0.018
  YS02001774           JUNCTION      0.00   452.57     0  01:59           0      0.0838       1.215
  YS02001779           JUNCTION      0.00   458.03     0  01:59           0      0.0402      -0.900
  YS02001783           JUNCTION      0.00  1161.70     0  02:01           0        3.46       0.001
  YS02001784           JUNCTION      0.00  1161.64     0  02:01           0        3.46      -0.000
  YS02001786           JUNCTION      0.00  1161.27     0  02:01           0        3.46       0.005
  YS02001788           JUNCTION      0.00  1162.18     0  02:01           0        3.46       0.003
  YS02001790           JUNCTION      0.00  1171.61     0  02:00           0        3.46       0.016
  YS02001791           JUNCTION      0.00  1282.51     0  02:02           0        3.46      -0.029
  YS02001793           JUNCTION      0.00  1243.49     0  02:03           0        3.46       0.005
  YS02001882           JUNCTION      0.00    59.82     0  01:57           0      0.0126       3.083
  YS02001884           JUNCTION      0.00    79.41     0  01:56           0      0.0485       4.062
  YS02001887           JUNCTION    646.97   649.42     0  02:01       0.923       0.957       0.400
  YS02001890           JUNCTION      0.00   649.87     0  02:01           0       0.917       0.475
  YS02001895           JUNCTION      0.00   515.37     0  02:03           0       0.882       0.166
  YS02001898           JUNCTION      0.00   515.46     0  02:04           0        0.88      -0.060
  YS02001901           JUNCTION      0.00   515.84     0  02:04           0       0.881       0.293
  YS02001904           JUNCTION      0.00   515.64     0  02:04           0       0.883       0.263
  YS02001907           JUNCTION      0.00  1611.17     0  02:04           0        2.85       0.559
  YS02001910           JUNCTION      0.00  1097.48     0  02:00           0        1.97       0.316
  YS02001915           JUNCTION    727.59  1097.31     0  02:00        1.29        2.01       0.040
  YS02001918           JUNCTION      0.00   479.35     0  01:59           0       0.755      -0.026
  YS02001920           JUNCTION      0.00   482.21     0  01:59           0       0.735       0.056
  YS02001923           JUNCTION      0.00   482.67     0  01:59           0       0.719      -0.098
  YS02001926           JUNCTION      0.00   761.16     0  01:59           0       0.698      -0.070
  YS02001929           JUNCTION    348.36   602.97     0  01:59       0.681       0.685       0.040
  YS02006553           JUNCTION      0.00   794.50     0  02:16           0        2.17       0.517
  YS02006556           JUNCTION      0.00   795.09     0  02:16           0        2.19       0.326
  YS02006558           JUNCTION    854.28  1169.13     0  01:59        1.34         3.5       0.101
  YS02006561           JUNCTION      0.00  1168.65     0  01:59           0        3.46      -0.010
  YS02163301           JUNCTION      0.00   931.74     0  01:58           0        3.15       0.038
  YS02163601           JUNCTION      0.00  1402.93     0  01:58           0        4.35       0.108
  YS02164001           JUNCTION      0.00  1402.74     0  01:58           0        4.35       0.041
  CC-1                 OUTFALL       0.00   683.00     0  02:04           0         2.9       0.000
  CC-2                 OUTFALL       0.00   683.00     0  02:09           0        1.68       0.000
  JK-1                 OUTFALL       0.00  1000.00     0  00:05           0        1.65       0.000
  JK-2                 OUTFALL       0.00  1000.00     0  00:05           0        1.64       0.000
  WSC                  OUTFALL       0.00   528.45     0  02:31           0        6.62       0.000
  CC-storage           STORAGE       0.00  3396.92     0  02:01           0        11.6      -0.261
  JK-storage           STORAGE       0.00  1275.94     0  02:00           0        3.61      -0.448
  
  
  **********************
  Node Surcharge Summary
  **********************
  
  Surcharging occurs when water rises above the top of the highest conduit.
  ---------------------------------------------------------------------
                                               Max. Height   Min. Depth
                                   Hours       Above Crown    Below Rim
  Node                 Type      Surcharged         Meters       Meters
  ---------------------------------------------------------------------
  WS02006109           JUNCTION        1.89          0.416        1.404
  WS02006110           JUNCTION        0.13          0.544        1.306
  WS02006111           JUNCTION        0.01          0.856        1.014
  WS02006112           JUNCTION        0.14          1.680        0.000
  WS02006113           JUNCTION        0.01          0.705        1.225
  WS02006115           JUNCTION        0.01          0.682        1.568
  WS02006116           JUNCTION        0.01          0.053        2.237
  WS02006228           JUNCTION        1.88          0.810        1.390
  WS02006229           JUNCTION        1.89          0.510        1.940
  WS02006230           JUNCTION        0.13          0.226        1.344
  WS02006231           JUNCTION        0.17          0.312        1.218
  WS02006232           JUNCTION        1.90          0.491        0.989
  WS02006234           JUNCTION        0.27          0.479        0.761
  WS02006235           JUNCTION        1.87          0.620        0.670
  WS02006238           JUNCTION        1.88          0.651        0.779
  WS02006239           JUNCTION        1.87          0.615        0.675
  WS02006240           JUNCTION        1.88          0.589        0.801
  WS02006242           JUNCTION        1.89          0.626        0.194
  WS02006243           JUNCTION        1.87          0.514        0.256
  WS02006245           JUNCTION        1.86          0.470        0.380
  WS02006247           JUNCTION        1.86          0.462        0.298
  WS02006248           JUNCTION        1.85          0.377        0.003
  WS02006249           JUNCTION        1.85          0.390        0.000
  WS02006251           JUNCTION        0.19          0.366        0.814
  WS02006252           JUNCTION        1.94          1.100        0.000
  WS02006256           JUNCTION        7.85          2.050        0.000
  YS02001580           JUNCTION        0.48          0.450        0.000
  YS02001583           JUNCTION        0.48          0.500        0.000
  YS02001586           JUNCTION        0.62          0.510        0.000
  YS02001590           JUNCTION        0.69          0.750        0.000
  YS02001593           JUNCTION        0.69          0.716        0.124
  YS02001596           JUNCTION        0.79          0.960        0.110
  YS02001600           JUNCTION        0.94          1.190        0.000
  YS02001601           JUNCTION        1.33          1.440        0.000
  YS02001602           JUNCTION        1.20          1.270        0.000
  YS02001605           JUNCTION        1.14          1.180        0.000
  YS02001607           JUNCTION        0.67          0.680        0.000
  YS02001610           JUNCTION        0.69          0.680        0.000
  YS02001613           JUNCTION        0.66          0.697        0.003
  YS02001616           JUNCTION        0.61          0.610        0.000
  YS02001619           JUNCTION        0.60          0.610        0.000
  YS02001622           JUNCTION        0.60          0.620        0.000
  YS02001625           JUNCTION        0.77          0.780        0.000
  YS02001629           JUNCTION        0.56          0.470        0.000
  YS02001633           JUNCTION        0.79          1.020        0.040
  YS02001641           JUNCTION        0.73          1.090        0.010
  YS02001644           JUNCTION        0.70          0.920        0.000
  YS02001647           JUNCTION        0.51          0.806        0.094
  YS02001649           JUNCTION        0.62          1.050        0.000
  YS02001652           JUNCTION        0.43          1.130        0.000
  YS02001655           JUNCTION        0.29          1.200        0.000
  YS02001658           JUNCTION        0.12          1.300        0.000
  YS02001661           JUNCTION        0.01          0.332        1.058
  YS02001748           JUNCTION        0.03          0.712        0.478
  YS02001751           JUNCTION        0.19          1.200        0.000
  YS02001754           JUNCTION        0.34          1.150        0.000
  YS02001757           JUNCTION        0.68          1.070        0.140
  YS02001759           JUNCTION        0.58          1.045        0.165
  YS02001762           JUNCTION        0.55          1.096        0.054
  YS02001765           JUNCTION        0.51          1.033        0.067
  YS02001767           JUNCTION        0.48          1.030        0.000
  YS02001770           JUNCTION        0.44          0.920        0.000
  YS02001774           JUNCTION        0.53          1.020        0.030
  YS02001779           JUNCTION        0.34          0.680        0.000
  YS02001783           JUNCTION        0.44          0.788        0.812
  YS02001784           JUNCTION        0.42          0.579        0.911
  YS02001786           JUNCTION        0.33          0.371        1.059
  YS02001882           JUNCTION        0.39          0.830        0.000
  YS02001884           JUNCTION        0.40          0.839        0.031
  YS02001887           JUNCTION        0.44          0.950        0.000
  YS02001890           JUNCTION        0.45          0.760        0.000
  YS02001895           JUNCTION        0.38          0.750        0.000
  YS02001898           JUNCTION        0.38          0.740        0.000
  YS02001901           JUNCTION        0.42          0.835        0.035
  YS02001904           JUNCTION        0.41          0.685        0.165
  YS02001907           JUNCTION        0.64          0.950        0.000
  YS02001910           JUNCTION        0.47          1.100        0.000
  YS02001915           JUNCTION        0.39          1.000        0.000
  YS02001918           JUNCTION        0.32          0.810        0.000
  YS02001920           JUNCTION        0.33          1.140        0.000
  YS02001923           JUNCTION        0.01          0.820        0.000
  YS02001926           JUNCTION        0.02          0.900        0.000
  YS02001929           JUNCTION        0.01          0.780        0.000
  YS02006553           JUNCTION        0.66          1.074        0.116
  YS02006556           JUNCTION        0.55          1.130        0.220
  YS02006558           JUNCTION        0.55          1.141        0.259
  YS02006561           JUNCTION        0.28          0.632        0.518
  YS02163301           JUNCTION        0.77          0.934        0.096
  YS02163601           JUNCTION        0.82          1.080        0.000
  YS02164001           JUNCTION        0.74          1.100        0.000
  
  
  *********************
  Node Flooding Summary
  *********************
  
  Flooding refers to all water that overflows a node, whether it ponds or not.
  --------------------------------------------------------------------------
                                                             Total   Maximum
                                 Maximum   Time of Max       Flood    Ponded
                        Hours       Rate    Occurrence      Volume     Depth
  Node                 Flooded       LPS   days hr:min    10^6 ltr    Meters
  --------------------------------------------------------------------------
  WS02006112              0.01   1405.86      0  00:00       0.047     0.000
  WS02006249              0.18    103.37      0  02:04       0.042     0.000
  WS02006252              0.01      0.91      0  02:00       0.000     0.000
  WS02006256              0.26    283.68      0  01:59       0.088     0.000
  YS02001580              0.01    108.73      0  01:57       0.000     0.000
  YS02001583              0.01    163.87      0  01:56       0.000     0.000
  YS02001586              0.37    220.35      0  02:04       0.158     0.000
  YS02001590              0.01     43.30      0  01:54       0.000     0.000
  YS02001600              0.01      1.22      0  01:55       0.000     0.000
  YS02001601              0.55    918.05      0  02:03       0.942     0.000
  YS02001602              0.45     61.99      0  02:03       0.089     0.000
  YS02001605              0.01      2.23      0  01:56       0.000     0.000
  YS02001607              0.01     16.38      0  01:56       0.000     0.000
  YS02001610              0.38    445.83      0  02:05       0.355     0.000
  YS02001616              0.01     17.95      0  01:56       0.000     0.000
  YS02001619              0.01     89.80      0  01:56       0.000     0.000
  YS02001622              0.01    124.10      0  01:56       0.000     0.000
  YS02001625              0.36   1064.08      0  02:04       0.677     0.000
  YS02001629              0.07    217.06      0  01:56       0.022     0.000
  YS02001644              0.10    512.35      0  02:02       0.092     0.000
  YS02001649              0.01     16.58      0  02:00       0.000     0.000
  YS02001652              0.01     52.32      0  02:00       0.000     0.000
  YS02001655              0.01     70.26      0  02:00       0.000     0.000
  YS02001658              0.01    514.70      0  02:00       0.001     0.000
  YS02001751              0.01    302.99      0  02:00       0.000     0.000
  YS02001754              0.01     87.49      0  02:00       0.000     0.000
  YS02001767              0.01     65.75      0  01:59       0.000     0.000
  YS02001770              0.01    141.26      0  01:59       0.000     0.000
  YS02001779              0.07    409.30      0  01:59       0.022     0.000
  YS02001882              0.01     21.07      0  01:58       0.000     0.000
  YS02001887              0.01     16.01      0  01:58       0.000     0.000
  YS02001890              0.10    142.24      0  02:01       0.030     0.000
  YS02001895              0.01     54.39      0  01:58       0.000     0.000
  YS02001898              0.01    141.71      0  01:58       0.000     0.000
  YS02001907              0.26   1267.77      0  02:01       0.677     0.000
  YS02001910              0.01     13.87      0  01:58       0.000     0.000
  YS02001915              0.01    182.55      0  01:58       0.000     0.000
  YS02001918              0.01    220.60      0  02:00       0.002     0.000
  YS02001920              0.01     91.40      0  01:59       0.000     0.000
  YS02001923              0.01    416.84      0  01:59       0.003     0.000
  YS02001926              0.01    668.70      0  01:59       0.002     0.000
  YS02001929              0.01    145.02      0  01:59       0.001     0.000
  YS02163601              0.01      1.63      0  02:18       0.000     0.000
  YS02164001              0.01      2.86      0  02:18       0.000     0.000
  
  
  **********************
  Storage Volume Summary
  **********************
  
  --------------------------------------------------------------------------------------------------
                         Average     Avg  Evap Exfil       Maximum     Max    Time of Max    Maximum
                          Volume    Pcnt  Pcnt  Pcnt        Volume    Pcnt     Occurrence    Outflow
  Storage Unit           1000 m3    Full  Loss  Loss       1000 m3    Full    days hr:min        LPS
  --------------------------------------------------------------------------------------------------
  CC-storage               2.149      34     0     0         4.391      69       0  02:26    1766.00
  JK-storage               0.067      23     0     0         0.211      72       0  01:59    2300.00
  
  
  ***********************
  Outfall Loading Summary
  ***********************
  
  -----------------------------------------------------------
                         Flow       Avg       Max       Total
                         Freq      Flow      Flow      Volume
  Outfall Node           Pcnt       LPS       LPS    10^6 ltr
  -----------------------------------------------------------
  CC-1                   8.53    683.00    683.00       2.905
  CC-2                   5.57    683.00    683.00       1.681
  JK-1                   4.81   1000.00   1000.00       1.648
  JK-2                   4.78   1000.00   1000.00       1.643
  WSC                  100.00    231.52    528.45       6.618
  -----------------------------------------------------------
  System                24.74   3597.52    528.45      14.495
  
  
  ********************
  Link Flow Summary
  ********************
  
  -----------------------------------------------------------------------------
                                 Maximum  Time of Max   Maximum    Max/    Max/
                                  |Flow|   Occurrence   |Veloc|    Full    Full
  Link                 Type          LPS  days hr:min     m/sec    Flow   Depth
  -----------------------------------------------------------------------------
  1                    CONDUIT    528.45     0  02:31      2.79    0.18    0.29
  WS02003060WS02003069 CONDUIT    531.48     0  02:29      1.63    0.21    0.33
  WS02003066WSF200     CONDUIT    514.27     0  02:28      2.82    0.09    0.22
  WS02003067WS02003066 CONDUIT    514.04     0  02:28      1.18    0.16    0.41
  WS02003069WS02003072 CONDUIT    529.77     0  02:30      1.35    0.26    0.38
  WS02003072WS02003073 CONDUIT    528.37     0  02:30      1.41    1.14    0.37
  WS02004401WS02004402 CONDUIT   1248.69     0  00:01      2.52    1.50    0.85
  WS02004402WS02004403 CONDUIT    929.44     0  00:01      2.21    1.34    0.88
  WS02004403WS02004404 CONDUIT    877.02     0  00:01      2.01    0.63    0.92
  WS02004404WS02004405 CONDUIT    827.31     0  00:01      2.30    8.11    0.95
  WS02004405WS02004406 CONDUIT    768.45     0  00:02      2.19    1.52    0.95
  WS02004406WS02004407 CONDUIT    527.02     0  02:26      1.03    0.24    0.62
  WS02004407WS02004409 CONDUIT    526.40     0  02:26      2.06    0.19    0.47
  WS02004409WS02004410 CONDUIT    522.00     0  02:27      1.39    0.68    0.66
  WS02004410WS02004411 CONDUIT    519.54     0  02:27      1.32    0.71    0.67
  WS02004411WS02004412 CONDUIT    517.63     0  02:27      1.30    0.74    0.68
  WS02004412WS02004413 CONDUIT    515.27     0  02:28      1.26    0.35    0.76
  WS02004413WS02003067 CONDUIT    513.62     0  02:28      1.08    0.22    0.58
  WS02006109WS02006110 CONDUIT   1446.81     0  00:00      2.88    2.78    1.00
  WS02006110WS02006113 CONDUIT    566.60     0  02:21      1.37    0.52    1.00
  WS02006111WS02006112 CONDUIT   2307.30     0  00:00      9.18    1.10    1.00
  WS02006112WS02006115 CONDUIT    953.54     0  00:00      1.24    0.56    1.00
  WS02006113WS02006111 CONDUIT   1180.41     0  00:00      2.46    1.41    1.00
  WS02006115WS02006116 CONDUIT   1264.47     0  00:00      1.74    1.62    1.00
  WS02006116WS02004401 CONDUIT   1786.04     0  00:00      2.94    2.46    0.83
  WS02006228WS02006109 CONDUIT    869.18     0  00:00      1.91    3.80    1.00
  WS02006229WS02006228 CONDUIT    551.54     0  02:10      1.10    1.83    1.00
  WS02006230WS02006229 CONDUIT    696.39     0  00:00      1.89   15.50    1.00
  WS02006231WS02006230 CONDUIT    572.52     0  02:10      1.91    8.68    1.00
  WS02006232WS02006231 CONDUIT    575.27     0  02:10      1.80    1.21    1.00
  WS02006234WS02006232 CONDUIT    574.51     0  02:10      1.49    1.16    1.00
  WS02006235WS02006234 CONDUIT    569.53     0  02:10      1.48    6.01    1.00
  WS02006238WS02006235 CONDUIT    424.39     0  02:25      1.10    0.95    1.00
  WS02006239WS02006238 CONDUIT    422.18     0  02:15      1.10    1.35    1.00
  WS02006240WS02006239 CONDUIT    421.40     0  02:15      1.09    1.33    1.00
  WS02006242WS02006240 CONDUIT    418.82     0  02:05      1.09    1.66    1.00
  WS02006243WS02006242 CONDUIT    418.87     0  02:05      1.16    0.89    1.00
  WS02006245WS02006243 CONDUIT    418.23     0  02:05      1.15    1.24    1.00
  WS02006247WS02006245 CONDUIT    417.95     0  02:15      1.22    3.31    1.00
  WS02006248WS02006247 CONDUIT    418.00     0  02:15      1.28    0.91    1.00
  WS02006249WS02006248 CONDUIT    419.51     0  02:15      1.31    2.30    1.00
  WS02006251WS02006249 CONDUIT    426.89     0  02:04      1.75    1.23    1.00
  WS02006252WS02006251 CONDUIT    407.13     0  02:04     20.67    1.49    1.00
  WS02006256WS02006235 CONDUIT    247.68     0  02:00      3.50    2.62    1.00
  WSF200WS02003060     CONDUIT    515.14     0  02:28      2.04    0.11    0.27
  YS02001580YS02001583 CONDUIT    122.55     0  01:56      0.74    0.47    1.00
  YS02001583YS02001586 CONDUIT    174.37     0  01:56      0.76    0.26    1.00
  YS02001586YS02001590 CONDUIT    317.91     0  02:13      1.26    0.56    1.00
  YS02001590YS02001593 CONDUIT    318.01     0  02:10      1.12    2.00    1.00
  YS02001593YS02001596 CONDUIT    317.96     0  02:10      1.73    0.50    1.00
  YS02001596YS02001600 CONDUIT    318.00     0  02:10      1.22    0.62    1.00
  YS02001600YS02001601 CONDUIT    318.07     0  02:01      1.12    0.55    1.00
  YS02001601YS02001602 CONDUIT    531.97     0  01:56      1.88    1.92    1.00
  YS02001602YS02001605 CONDUIT    531.48     0  01:56      1.88   11.25    1.00
  YS02001605YS02001607 CONDUIT    531.33     0  01:56      1.88    2.91    1.00
  YS02001607YS02001610 CONDUIT    541.01     0  01:56      0.69    0.51    1.00
  YS02001610YS02001613 CONDUIT    547.74     0  01:56      0.70    0.63    1.00
  YS02001613YS02001616 CONDUIT    549.73     0  01:56      0.71    0.47    1.00
  YS02001616YS02001619 CONDUIT    505.93     0  01:56      0.67    0.88    1.00
  YS02001619YS02001622 CONDUIT    931.54     0  01:58      1.20    1.37    1.00
  YS02001622YS02001625 CONDUIT    933.35     0  01:56      1.19    0.50    1.00
  YS02001625YS02001629 CONDUIT    933.33     0  01:56      1.19    0.44    1.00
  YS02001629YS02163301 CONDUIT    931.74     0  01:58      1.19    1.15    1.00
  YS02001633YS02163601 CONDUIT   1402.93     0  01:58      1.79    1.47    1.00
  YS02001641YS02001644 CONDUIT   1402.78     0  01:58      1.79    4.53    1.00
  YS02001644YS02001647 CONDUIT   1832.91     0  01:58      2.36    1.08    1.00
  YS02001647YS02001649 CONDUIT   1853.50     0  01:58      2.36    0.98    1.00
  YS02001649YS02001757 CONDUIT   2091.49     0  01:58      2.66    1.27    1.00
  YS02001652YS02001649 CONDUIT    812.47     0  02:02      1.03    0.40    1.00
  YS02001655YS02001652 CONDUIT    811.28     0  02:02      1.34    0.39    1.00
  YS02001658YS02001655 CONDUIT    811.25     0  02:02      1.94    0.34    1.00
  YS02001661YS02001658 CONDUIT    810.28     0  02:02      2.37    0.32    1.00
  YS02001664YS02001661 CONDUIT    765.98     0  02:01      2.41    0.24    0.81
  YS02001745YS02001748 CONDUIT    558.69     0  02:01      2.26    0.22    0.97
  YS02001748YS02001751 CONDUIT    560.68     0  02:01      1.75    0.28    1.00
  YS02001751YS02001754 CONDUIT    562.79     0  02:01      1.46    0.27    1.00
  YS02001754YS02001757 CONDUIT    564.58     0  02:01      0.72    0.23    1.00
  YS02001757CaochengTiaoxuchi CONDUIT   3396.92     0  02:01      4.33    1.47    1.00
  YS02001759YS02001757 CONDUIT   1384.83     0  02:01      1.76    0.98    1.00
  YS02001762YS02001759 CONDUIT    796.75     0  02:01      1.01    0.92    1.00
  YS02001765YS02001762 CONDUIT    791.33     0  02:01      1.01    0.74    1.00
  YS02001767YS02001765 CONDUIT    799.44     0  02:01      1.02    1.01    1.00
  YS02001770YS02001767 CONDUIT    803.29     0  02:01      1.02    3.18    1.00
  YS02001774YS02001770 CONDUIT    452.57     0  01:59      0.58    0.29    1.00
  YS02001779YS02001774 CONDUIT    458.03     0  01:59      0.59    0.23    1.00
  YS02001783YS02001784 CONDUIT   1161.64     0  02:01      2.31    1.60    1.00
  YS02001784YS02001785 CONDUIT   1161.27     0  02:01      2.31    2.70    1.00
  YS02001786YS02001788 CONDUIT   1162.18     0  02:01      2.48    2.24    0.89
  YS02001788YS02001790 CONDUIT   1171.61     0  02:00      2.72    0.86    0.84
  YS02001790YS02001791 CONDUIT   1282.51     0  02:02      3.43    1.40    0.70
  YS02001791YS02001793 CONDUIT   1243.49     0  02:03      6.76    0.53    0.43
  YS02001793JiankangQianchi CONDUIT   1275.94     0  02:00      2.54    0.10    0.64
  YS02001882YS02001884 CONDUIT     59.82     0  01:57      0.15    0.07    1.00
  YS02001884YS02001887 CONDUIT     79.41     0  01:56      0.11    0.11    1.00
  YS02001887YS02001890 CONDUIT    649.87     0  02:01      0.83    1.11    1.00
  YS02001890YS02001895 CONDUIT    515.37     0  02:03      0.66    0.24    1.00
  YS02001895YS02001898 CONDUIT    515.46     0  02:04      0.66    0.89    1.00
  YS02001898YS02001901 CONDUIT    515.84     0  02:04      0.66    0.33    1.00
  YS02001901YS02001904 CONDUIT    515.64     0  02:04      0.66    0.80    1.00
  YS02001904YS02001907 CONDUIT    516.39     0  02:03      0.66    0.18    1.00
  YS02001907YS02006553 CONDUIT    794.50     0  02:16      0.88    0.93    1.00
  YS02001910YS02001907 CONDUIT   1097.28     0  02:00      1.40    0.62    1.00
  YS02001915YS02001910 CONDUIT   1097.48     0  02:00      1.40    0.55    1.00
  YS02001918YS02001915 CONDUIT    479.35     0  01:59      0.61    0.26    1.00
  YS02001920YS02001918 CONDUIT    482.21     0  01:59      0.63    0.47    1.00
  YS02001923YS02001920 CONDUIT    482.67     0  01:59      0.71    0.22    1.00
  YS02001926YS02001923 CONDUIT    447.97     0  01:59      0.97    0.64    1.00
  YS02001929YS02001926 CONDUIT    407.05     0  02:00      1.16    0.19    1.00
  YS02006553YS02006556 CONDUIT    795.09     0  02:16      1.01    0.68    1.00
  YS02006556YS02006558 CONDUIT    796.42     0  02:16      1.01    0.63    1.00
  YS02006558YS02006561 CONDUIT   1168.65     0  01:59      4.13    2.58    1.00
  YS02006561YS02001783 CONDUIT   1161.70     0  02:01      2.31    0.60    1.00
  YS02163301YS02001633 CONDUIT    931.96     0  01:58      1.19    0.88    1.00
  YS02163601YS02164001 CONDUIT   1402.74     0  01:58      1.79    1.24    1.00
  YS02164001YS02001641 CONDUIT   1402.42     0  01:58      1.79    1.91    1.00
  CC-R1                PUMP       683.00     0  02:04              1.00
  CC-R2                PUMP       683.00     0  02:09              1.00
  CC-S1                PUMP       200.00     0  00:05              1.00
  CC-S2                PUMP       200.00     0  02:00              1.00
  JK-R1                PUMP      1000.00     0  00:05              1.00
  JK-R2                PUMP      1000.00     0  00:05              1.00
  JK-S                 PUMP       300.00     0  01:59              1.00
  
  
  ***************************
  Flow Classification Summary
  ***************************
  
  -------------------------------------------------------------------------------------
                      Adjusted    ---------- Fraction of Time in Flow Class ---------- 
                       /Actual         Up    Down  Sub   Sup   Up    Down  Norm  Inlet 
  Conduit               Length    Dry  Dry   Dry   Crit  Crit  Crit  Crit  Ltd   Ctrl  
  -------------------------------------------------------------------------------------
  1                       1.00   0.00  0.00  0.00  0.00  1.00  0.00  0.00  0.20  0.00
  WS02003060WS02003069    1.00   0.00  0.00  0.00  0.99  0.01  0.00  0.00  0.66  0.00
  WS02003066WSF200        1.00   0.02  0.00  0.00  0.00  0.98  0.00  0.00  0.95  0.00
  WS02003067WS02003066    1.00   0.01  0.01  0.00  0.98  0.00  0.00  0.00  0.00  0.00
  WS02003069WS02003072    1.00   0.00  0.00  0.00  1.00  0.00  0.00  0.00  0.74  0.00
  WS02003072WS02003073    1.00   0.00  0.00  0.00  0.00  0.00  0.00  1.00  0.00  0.00
  WS02004401WS02004402    1.00   0.00  0.00  0.00  1.00  0.00  0.00  0.00  0.00  0.00
  WS02004402WS02004403    1.00   0.00  0.00  0.00  1.00  0.00  0.00  0.00  0.00  0.00
  WS02004403WS02004404    1.00   0.00  0.00  0.00  1.00  0.00  0.00  0.00  0.00  0.00
  WS02004404WS02004405    1.00   0.00  0.00  0.00  1.00  0.00  0.00  0.00  0.01  0.00
  WS02004405WS02004406    1.00   0.00  0.00  0.00  1.00  0.00  0.00  0.00  0.00  0.00
  WS02004406WS02004407    1.00   0.00  0.00  0.00  1.00  0.00  0.00  0.00  0.00  0.00
  WS02004407WS02004409    1.00   0.00  0.00  0.00  1.00  0.00  0.00  0.00  0.99  0.00
  WS02004409WS02004410    1.00   0.00  0.00  0.00  1.00  0.00  0.00  0.00  0.00  0.00
  WS02004410WS02004411    1.00   0.00  0.00  0.00  1.00  0.00  0.00  0.00  0.00  0.00
  WS02004411WS02004412    1.00   0.00  0.00  0.00  1.00  0.00  0.00  0.00  0.00  0.00
  WS02004412WS02004413    1.00   0.00  0.00  0.00  0.99  0.00  0.00  0.00  0.00  0.00
  WS02004413WS02003067    1.00   0.00  0.01  0.00  0.00  0.00  0.99  0.00  0.00  0.00
  WS02006109WS02006110    1.00   0.00  0.00  0.00  1.00  0.00  0.00  0.00  0.00  0.00
  WS02006110WS02006113    1.00   0.00  0.00  0.00  1.00  0.00  0.00  0.00  0.00  0.00
  WS02006111WS02006112    1.00   0.00  0.00  0.00  1.00  0.00  0.00  0.00  1.00  0.00
  WS02006112WS02006115    1.00   0.00  0.00  0.00  1.00  0.00  0.00  0.00  0.00  0.00
  WS02006113WS02006111    1.00   0.00  0.00  0.00  0.00  1.00  0.00  0.00  0.20  0.00
  WS02006115WS02006116    1.00   0.00  0.00  0.00  1.00  0.00  0.00  0.00  0.00  0.00
  WS02006116WS02004401    1.00   0.00  0.00  0.00  1.00  0.00  0.00  0.00  0.00  0.00
  WS02006228WS02006109    1.00   0.00  0.00  0.00  1.00  0.00  0.00  0.00  0.00  0.00
  WS02006229WS02006228    1.00   0.00  0.00  0.00  1.00  0.00  0.00  0.00  0.00  0.00
  WS02006230WS02006229    1.00   0.00  0.00  0.00  1.00  0.00  0.00  0.00  0.00  0.00
  WS02006231WS02006230    1.00   0.00  0.00  0.00  0.14  0.00  0.86  0.00  0.00  0.00
  WS02006232WS02006231    1.00   0.00  0.00  0.00  1.00  0.00  0.00  0.00  0.00  0.00
  WS02006234WS02006232    1.00   0.00  0.00  0.00  1.00  0.00  0.00  0.00  0.00  0.00
  WS02006235WS02006234    1.00   0.00  0.00  0.00  0.98  0.00  0.02  0.00  0.00  0.00
  WS02006238WS02006235    1.00   0.00  0.00  0.00  1.00  0.00  0.00  0.00  0.00  0.00
  WS02006239WS02006238    1.00   0.00  0.00  0.00  1.00  0.00  0.00  0.00  0.00  0.00
  WS02006240WS02006239    1.00   0.01  0.00  0.00  0.94  0.00  0.00  0.05  0.00  0.00
  WS02006242WS02006240    1.00   0.01  0.00  0.00  0.98  0.00  0.01  0.00  0.00  0.00
  WS02006243WS02006242    1.00   0.01  0.00  0.00  0.98  0.00  0.00  0.01  0.24  0.00
  WS02006245WS02006243    1.00   0.01  0.00  0.00  0.97  0.00  0.00  0.03  0.00  0.00
  WS02006247WS02006245    1.00   0.00  0.00  0.00  0.98  0.00  0.00  0.01  0.00  0.00
  WS02006248WS02006247    1.00   0.00  0.00  0.00  0.99  0.00  0.00  0.01  0.24  0.00
  WS02006249WS02006248    1.00   0.00  0.00  0.00  0.93  0.00  0.07  0.00  0.00  0.00
  WS02006251WS02006249    1.00   0.00  0.00  0.00  0.99  0.00  0.00  0.00  0.21  0.00
  WS02006252WS02006251    1.00   0.00  0.05  0.00  0.02  0.00  0.94  0.00  0.00  0.00
  WS02006256WS02006235    1.00   0.00  0.00  0.00  1.00  0.00  0.00  0.00  0.00  0.00
  WSF200WS02003060        1.00   0.00  0.02  0.00  0.03  0.95  0.00  0.00  0.57  0.00
  YS02001580YS02001583    1.00   0.34  0.54  0.00  0.11  0.00  0.00  0.00  0.68  0.00
  YS02001583YS02001586    1.00   0.36  0.50  0.00  0.14  0.00  0.00  0.00  0.68  0.00
  YS02001586YS02001590    1.00   0.19  0.00  0.00  0.39  0.06  0.00  0.36  0.36  0.00
  YS02001590YS02001593    1.00   0.19  0.01  0.00  0.09  0.00  0.71  0.00  0.00  0.00
  YS02001593YS02001596    1.00   0.21  0.00  0.00  0.10  0.01  0.00  0.69  0.02  0.00
  YS02001596YS02001600    1.00   0.21  0.00  0.00  0.16  0.01  0.00  0.62  0.05  0.00
  YS02001600YS02001601    1.00   0.20  0.01  0.00  0.79  0.00  0.00  0.00  0.62  0.00
  YS02001601YS02001602    1.00   0.19  0.02  0.00  0.79  0.00  0.00  0.00  0.00  0.00
  YS02001602YS02001605    1.00   0.21  0.00  0.00  0.79  0.00  0.00  0.00  0.00  0.00
  YS02001605YS02001607    1.00   0.21  0.00  0.00  0.79  0.00  0.00  0.00  0.00  0.00
  YS02001607YS02001610    1.00   0.20  0.01  0.00  0.79  0.00  0.00  0.00  0.02  0.00
  YS02001610YS02001613    1.00   0.20  0.00  0.00  0.80  0.00  0.00  0.00  0.01  0.00
  YS02001613YS02001616    1.00   0.19  0.00  0.00  0.81  0.00  0.00  0.00  0.00  0.00
  YS02001616YS02001619    1.00   0.19  0.00  0.00  0.81  0.00  0.00  0.00  0.00  0.00
  YS02001619YS02001622    1.00   0.19  0.00  0.00  0.81  0.00  0.00  0.00  0.30  0.00
  YS02001622YS02001625    1.00   0.19  0.00  0.00  0.81  0.00  0.00  0.00  0.05  0.00
  YS02001625YS02001629    1.00   0.20  0.06  0.00  0.12  0.00  0.63  0.00  0.00  0.00
  YS02001629YS02163301    1.00   0.24  0.01  0.00  0.75  0.00  0.00  0.00  0.00  0.00
  YS02001633YS02163601    1.00   0.20  0.00  0.00  0.80  0.00  0.00  0.00  0.01  0.00
  YS02001641YS02001644    1.00   0.19  0.01  0.00  0.80  0.00  0.00  0.00  0.00  0.00
  YS02001644YS02001647    1.00   0.19  0.06  0.00  0.75  0.00  0.00  0.00  0.00  0.00
  YS02001647YS02001649    1.00   0.22  0.03  0.00  0.41  0.33  0.00  0.00  0.56  0.00
  YS02001649YS02001757    1.00   0.00  0.22  0.00  0.52  0.26  0.00  0.00  0.17  0.00
  YS02001652YS02001649    1.00   0.22  0.00  0.00  0.75  0.03  0.00  0.00  0.61  0.00
  YS02001655YS02001652    1.00   0.22  0.00  0.00  0.13  0.01  0.00  0.64  0.06  0.00
  YS02001658YS02001655    1.00   0.22  0.00  0.00  0.60  0.19  0.00  0.00  0.68  0.00
  YS02001661YS02001658    1.00   0.22  0.00  0.00  0.39  0.39  0.00  0.00  0.70  0.00
  YS02001664YS02001661    1.00   0.19  0.00  0.00  0.69  0.12  0.00  0.00  0.86  0.00
  YS02001745YS02001748    1.00   0.19  0.00  0.00  0.06  0.01  0.00  0.75  0.05  0.00
  YS02001748YS02001751    1.00   0.19  0.00  0.00  0.63  0.18  0.00  0.00  0.65  0.00
  YS02001751YS02001754    1.00   0.19  0.00  0.00  0.11  0.01  0.00  0.69  0.05  0.00
  YS02001754YS02001757    1.00   0.00  0.20  0.00  0.78  0.03  0.00  0.00  0.66  0.00
  YS02001757CaochengTiaoxuchi    1.00   0.00  0.00  0.00  0.96  0.04  0.00  0.00  0.62  0.00
  YS02001759YS02001757    1.00   0.00  0.19  0.00  0.78  0.03  0.00  0.00  0.45  0.00
  YS02001762YS02001759    1.00   0.19  0.01  0.00  0.80  0.00  0.00  0.00  0.05  0.00
  YS02001765YS02001762    1.00   0.20  0.00  0.00  0.80  0.00  0.00  0.00  0.53  0.00
  YS02001767YS02001765    1.00   0.19  0.00  0.00  0.81  0.00  0.00  0.00  0.01  0.00
  YS02001770YS02001767    1.00   0.19  0.00  0.00  0.81  0.00  0.00  0.00  0.00  0.00
  YS02001774YS02001770    1.00   0.21  0.00  0.00  0.69  0.00  0.10  0.00  0.02  0.00
  YS02001779YS02001774    1.00   0.21  0.56  0.00  0.23  0.00  0.00  0.00  0.60  0.00
  YS02001783YS02001784    1.00   0.26  0.00  0.00  0.73  0.00  0.00  0.00  0.56  0.00
  YS02001784YS02001785    1.00   0.27  0.00  0.00  0.73  0.00  0.00  0.00  0.38  0.00
  YS02001786YS02001788    1.00   0.27  0.00  0.00  0.58  0.15  0.00  0.00  0.00  0.00
  YS02001788YS02001790    1.00   0.27  0.00  0.00  0.14  0.59  0.00  0.00  0.62  0.00
  YS02001790YS02001791    1.00   0.27  0.00  0.00  0.01  0.72  0.00  0.00  0.15  0.00
  YS02001791YS02001793    1.00   0.28  0.00  0.00  0.00  0.72  0.00  0.00  0.01  0.00
  YS02001793JiankangQianchi    1.00   0.00  0.28  0.00  0.70  0.02  0.00  0.00  0.79  0.00
  YS02001882YS02001884    1.00   0.25  0.00  0.00  0.75  0.00  0.00  0.00  0.00  0.00
  YS02001884YS02001887    1.00   0.21  0.02  0.00  0.77  0.00  0.00  0.00  0.00  0.00
  YS02001887YS02001890    1.00   0.19  0.01  0.00  0.78  0.00  0.02  0.00  0.00  0.00
  YS02001890YS02001895    1.00   0.20  0.05  0.00  0.75  0.00  0.00  0.00  0.00  0.00
  YS02001895YS02001898    1.00   0.25  0.00  0.00  0.73  0.00  0.02  0.00  0.00  0.00
  YS02001898YS02001901    1.00   0.25  0.00  0.00  0.75  0.00  0.00  0.00  0.01  0.00
  YS02001901YS02001904    1.00   0.25  0.00  0.00  0.74  0.00  0.00  0.00  0.00  0.00
  YS02001904YS02001907    1.00   0.19  0.06  0.00  0.74  0.00  0.00  0.00  0.00  0.00
  YS02001907YS02006553    1.00   0.19  0.03  0.00  0.78  0.00  0.00  0.00  0.01  0.00
  YS02001910YS02001907    1.00   0.19  0.00  0.00  0.77  0.00  0.00  0.04  0.03  0.00
  YS02001915YS02001910    1.00   0.19  0.00  0.00  0.76  0.05  0.00  0.00  0.01  0.00
  YS02001918YS02001915    1.00   0.19  0.06  0.00  0.75  0.00  0.00  0.00  0.73  0.00
  YS02001920YS02001918    1.00   0.22  0.03  0.00  0.75  0.00  0.00  0.00  0.00  0.00
  YS02001923YS02001920    1.00   0.22  0.00  0.00  0.78  0.00  0.00  0.00  0.79  0.00
  YS02001926YS02001923    1.00   0.19  0.03  0.00  0.04  0.00  0.74  0.00  0.00  0.00
  YS02001929YS02001926    1.00   0.19  0.00  0.00  0.81  0.00  0.00  0.00  0.82  0.00
  YS02006553YS02006556    1.00   0.21  0.00  0.00  0.79  0.00  0.00  0.00  0.02  0.00
  YS02006556YS02006558    1.00   0.19  0.01  0.00  0.80  0.00  0.00  0.00  0.00  0.00
  YS02006558YS02006561    1.00   0.26  0.00  0.00  0.04  0.70  0.00  0.00  0.17  0.00
  YS02006561YS02001783    1.00   0.26  0.00  0.00  0.09  0.64  0.00  0.00  0.69  0.00
  YS02163301YS02001633    1.00   0.19  0.05  0.00  0.76  0.00  0.00  0.00  0.00  0.00
  YS02163601YS02164001    1.00   0.20  0.02  0.00  0.78  0.00  0.00  0.00  0.01  0.00
  YS02164001YS02001641    1.00   0.20  0.02  0.00  0.78  0.00  0.00  0.00  0.00  0.00
  
  
  *************************
  Conduit Surcharge Summary
  *************************
  
  ----------------------------------------------------------------------------
                                                           Hours        Hours 
                         --------- Hours Full --------   Above Full   Capacity
  Conduit                Both Ends  Upstream  Dnstream   Normal Flow   Limited
  ----------------------------------------------------------------------------
  WS02003072WS02003073        0.01      0.01      0.01      0.27         0.01
  WS02004401WS02004402        0.01      0.01      0.01      0.01         0.01
  WS02004402WS02004403        0.01      0.01      0.01      0.02         0.01
  WS02004404WS02004405        0.01      0.01      0.01      5.96         0.01
  WS02004405WS02004406        0.01      0.01      0.01      0.10         0.01
  WS02006109WS02006110        0.13      0.13      1.91      0.17         0.01
  WS02006110WS02006113        0.01      0.01      1.90      0.01         0.01
  WS02006111WS02006112        0.01      0.01      2.04      0.01         0.01
  WS02006112WS02006115        0.01      0.01      0.13      0.01         0.01
  WS02006113WS02006111        0.01      0.01      0.01      0.01         0.01
  WS02006115WS02006116        0.01      0.01      0.01      0.01         0.01
  WS02006116WS02004401        0.01      0.01      0.01      0.02         0.01
  WS02006228WS02006109        1.88      1.90      1.89      2.13         1.88
  WS02006229WS02006228        1.88      1.89      1.88      2.00         1.87
  WS02006230WS02006229        1.92      1.99      1.94      6.17         1.92
  WS02006231WS02006230        0.13      0.13      0.18      5.91         0.01
  WS02006232WS02006231        0.17      0.17      1.90      0.19         0.01
  WS02006234WS02006232        1.86      1.86      1.90      0.18         0.19
  WS02006235WS02006234        0.27      0.27      1.87      5.80         0.01
  WS02006238WS02006235        1.87      1.87      1.90      0.01         0.01
  WS02006239WS02006238        1.88      1.89      1.88      1.89         1.84
  WS02006240WS02006239        1.87      1.88      1.87      1.88         1.80
  WS02006242WS02006240        1.88      1.88      1.90      1.95         0.01
  WS02006243WS02006242        1.87      1.87      1.89      0.01         0.01
  WS02006245WS02006243        1.86      1.86      1.87      1.70         1.73
  WS02006247WS02006245        1.86      1.87      1.86      5.79         1.86
  WS02006248WS02006247        1.86      1.86      1.86      0.01         0.01
  WS02006249WS02006248        1.85      1.85      1.85      5.76         0.01
  WS02006251WS02006249        1.85      1.85      1.85      1.89         1.83
  WS02006252WS02006251        1.90      1.90      1.94      1.90         0.01
  WS02006256WS02006235        5.84      5.85      7.85      0.26         0.01
  YS02001580YS02001583        0.48      0.48      0.53      0.01         0.01
  YS02001583YS02001586        0.48      0.48      0.62      0.01         0.01
  YS02001586YS02001590        0.62      0.62      0.69      0.01         0.01
  YS02001590YS02001593        0.69      0.69      0.70      0.73         0.01
  YS02001593YS02001596        0.70      0.70      0.79      0.01         0.01
  YS02001596YS02001600        0.84      0.84      0.94      0.01         0.01
  YS02001600YS02001601        1.00      1.00      1.33      0.01         0.01
  YS02001601YS02001602        1.20      1.20      1.36      0.95         0.01
  YS02001602YS02001605        1.14      1.14      1.20      2.15         0.01
  YS02001605YS02001607        1.08      1.14      1.08      1.29         1.08
  YS02001607YS02001610        0.67      0.67      0.69      0.01         0.01
  YS02001610YS02001613        0.66      0.66      0.69      0.01         0.01
  YS02001613YS02001616        0.61      0.61      0.66      0.01         0.01
  YS02001616YS02001619        0.60      0.60      0.61      0.01         0.01
  YS02001619YS02001622        0.60      0.60      0.60      0.70         0.58
  YS02001622YS02001625        0.60      0.60      0.77      0.01         0.01
  YS02001625YS02001629        0.56      0.56      0.77      0.01         0.01
  YS02001629YS02163301        0.77      0.77      0.77      0.16         0.15
  YS02001633YS02163601        0.79      0.79      0.82      0.35         0.33
  YS02001641YS02001644        0.70      0.73      0.70      1.40         0.70
  YS02001644YS02001647        0.51      0.51      0.70      0.04         0.01
  YS02001647YS02001649        0.51      0.51      0.62      0.01         0.01
  YS02001649YS02001757        0.61      0.62      0.68      0.07         0.06
  YS02001652YS02001649        0.45      0.45      0.62      0.01         0.01
  YS02001655YS02001652        0.29      0.29      0.43      0.01         0.01
  YS02001658YS02001655        0.12      0.12      0.29      0.01         0.01
  YS02001661YS02001658        0.01      0.01      0.12      0.01         0.01
  YS02001664YS02001661        0.01      0.01      0.02      0.01         0.01
  YS02001745YS02001748        0.01      0.01      0.03      0.01         0.01
  YS02001748YS02001751        0.10      0.10      0.19      0.01         0.01
  YS02001751YS02001754        0.19      0.19      0.34      0.01         0.01
  YS02001754YS02001757        0.38      0.38      0.68      0.01         0.01
  YS02001757CaochengTiaoxuchi        0.64      0.68      1.87      0.30         0.24
  YS02001759YS02001757        0.58      0.58      0.68      0.01         0.02
  YS02001762YS02001759        0.55      0.55      0.58      0.01         0.02
  YS02001765YS02001762        0.51      0.51      0.55      0.01         0.01
  YS02001767YS02001765        0.47      0.48      0.51      0.01         0.03
  YS02001770YS02001767        0.47      0.47      0.48      0.45         0.33
  YS02001774YS02001770        0.44      0.44      0.53      0.01         0.01
  YS02001779YS02001774        0.34      0.34      0.53      0.01         0.01
  YS02001783YS02001784        0.42      0.44      0.42      0.58         0.42
  YS02001784YS02001785        0.33      0.42      0.33      0.79         0.33
  YS02001786YS02001788        0.01      0.33      0.01      0.67         0.01
  YS02001790YS02001791        0.01      0.01      0.01      0.41         0.01
  YS02001793JiankangQianchi        0.01      0.01      6.40      0.01         0.01
  YS02001882YS02001884        0.39      0.39      0.40      0.01         0.01
  YS02001884YS02001887        0.43      0.43      0.44      0.01         0.01
  YS02001887YS02001890        0.45      0.45      0.46      0.06         0.01
  YS02001890YS02001895        0.38      0.38      0.48      0.01         0.01
  YS02001895YS02001898        0.38      0.38      0.38      0.01         0.01
  YS02001898YS02001901        0.39      0.39      0.42      0.01         0.01
  YS02001901YS02001904        0.41      0.41      0.42      0.01         0.01
  YS02001904YS02001907        0.41      0.41      0.66      0.01         0.01
  YS02001907YS02006553        0.81      0.81      0.87      0.01         0.01
  YS02001910YS02001907        0.47      0.47      0.64      0.01         0.01
  YS02001915YS02001910        0.39      0.39      0.47      0.01         0.01
  YS02001918YS02001915        0.32      0.32      0.39      0.01         0.01
  YS02001920YS02001918        0.32      0.32      0.33      0.01         0.01
  YS02001923YS02001920        0.27      0.27      0.33      0.01         0.01
  YS02001926YS02001923        0.01      0.01      0.02      0.01         0.01
  YS02001929YS02001926        0.01      0.01      0.02      0.01         0.01
  YS02006553YS02006556        0.55      0.55      0.66      0.01         0.01
  YS02006556YS02006558        0.61      0.61      0.67      0.01         0.01
  YS02006558YS02006561        0.35      0.55      0.35      0.75         0.35
  YS02006561YS02001783        0.28      0.28      0.44      0.01         0.01
  YS02163301YS02001633        0.77      0.77      0.81      0.01         0.01
  YS02163601YS02164001        0.74      0.74      0.82      0.06         0.01
  YS02164001YS02001641        0.73      0.74      0.73      0.68         0.58
  
  
  ***************
  Pumping Summary
  ***************
  
  ---------------------------------------------------------------------------------------------------------
                                                  Min       Avg       Max     Total     Power    % Time Off
                        Percent   Number of      Flow      Flow      Flow    Volume     Usage    Pump Curve
  Pump                 Utilized   Start-Ups       LPS       LPS       LPS  10^6 ltr     Kw-hr    Low   High
  ---------------------------------------------------------------------------------------------------------
  CC-R1                   14.76           1      0.00    683.00    683.00     2.904     54.79    0.0    0.0
  CC-R2                    8.55           1      0.00    683.00    683.00     1.681     32.10    0.0    0.0
  CC-S1                   73.64          26      0.00    200.00    200.00     4.241     26.25    0.0    0.0
  CC-S2                   23.78           1      0.00    200.00    200.00     1.369      7.57    0.0    0.0
  JK-R1                    5.75          51      0.00   1000.00   1000.00     1.656     13.42    0.0    0.0
  JK-R2                    5.73          51      0.00   1000.00   1000.00     1.651     13.36    0.0    0.0
  JK-S                     3.24           3      0.00    300.00    300.00     0.280      4.59    0.0    0.0
  

  Analysis begun on:  Fri Sep  8 22:11:59 2023
  Analysis ended on:  Fri Sep  8 22:12:13 2023
  Total elapsed time: 00:00:14