
  OWA STORM WATER MANAGEMENT MODEL - VERSION v5.1.14 (OWA 2022-07-31)
  --------------------------------------------------------------

  WARNING 04: minimum elevation drop used for Conduit WS02004404WS02004405
  WARNING 03: negative offset ignored for Link YS02001904YS02001907
  
  *********************************************************
  NOTE: The summary statistics displayed in this report are
  based on results found at every computational time step,  
  not just on results from each reporting time step.
  *********************************************************
  
  ****************
  Analysis Options
  ****************
  Flow Units ............... LPS
  Process Models:
    Rainfall/Runoff ........ YES
    RDII ................... NO
    Snowmelt ............... NO
    Groundwater ............ NO
    Flow Routing ........... YES
    Ponding Allowed ........ NO
    Water Quality .......... NO
  Infiltration Method ...... HORTON
  Flow Routing Method ...... DYNWAVE
  Surcharge Method ......... EXTRAN
  Starting Date ............ 08/28/2015 08:00:00
  Ending Date .............. 08/28/2015 16:00:00
  Antecedent Dry Days ...... 8.0
  Report Time Step ......... 00:01:00
  Wet Time Step ............ 00:01:00
  Dry Time Step ............ 00:01:00
  Routing Time Step ........ 30.00 sec
  Variable Time Step ....... YES
  Maximum Trials ........... 8
  Number of Threads ........ 1
  Head Tolerance ........... 0.001500 m
  
  
  **************************        Volume         Depth
  Runoff Quantity Continuity     hectare-m            mm
  **************************     ---------       -------
  Total Precipitation ......         1.340        40.385
  Evaporation Loss .........         0.000         0.000
  Infiltration Loss ........         0.093         2.794
  Surface Runoff ...........         1.214        36.609
  Final Storage ............         0.033         0.992
  Continuity Error (%) .....        -0.023
  
  
  **************************        Volume        Volume
  Flow Routing Continuity        hectare-m      10^6 ltr
  **************************     ---------     ---------
  Dry Weather Inflow .......         0.000         0.000
  Wet Weather Inflow .......         1.215        12.147
  Groundwater Inflow .......         0.000         0.000
  RDII Inflow ..............         0.000         0.000
  External Inflow ..........         0.083         0.834
  External Outflow .........         1.295        12.946
  Flooding Loss ............         0.099         0.985
  Evaporation Loss .........         0.000         0.000
  Exfiltration Loss ........         0.000         0.000
  Initial Stored Volume ....         0.243         2.431
  Final Stored Volume ......         0.180         1.802
  Continuity Error (%) .....        -2.091
  
  
  *************************
  Highest Continuity Errors
  *************************
  Node YS02001583 (-12.78%)
  Node YS02001884 (3.74%)
  Node YS02001774 (1.46%)
  
  
  ***************************
  Time-Step Critical Elements
  ***************************
  Link WS02006252WS02006251 (79.31%)
  Link WS02006235WS02006234 (8.02%)
  Link WS02004404WS02004405 (3.63%)
  Link WS02006238WS02006235 (1.93%)
  Link WS02003066WSF200 (1.75%)
  
  
  ********************************
  Highest Flow Instability Indexes
  ********************************
  Link WS02006113WS02006111 (54)
  Link WS02006111WS02006112 (29)
  Link WS02006256WS02006235 (9)
  Link WS02006110WS02006113 (8)
  Link YS02006556YS02006558 (4)
  
  
  *************************
  Routing Time Step Summary
  *************************
  Minimum Time Step           :     0.00 sec
  Average Time Step           :     1.16 sec
  Maximum Time Step           :    30.00 sec
  Percent in Steady State     :    -0.00
  Average Iterations per Step :     2.41
  Percent Not Converging      :     4.59
  
  
  ***************************
  Subcatchment Runoff Summary
  ***************************
  
  ------------------------------------------------------------------------------------------------------------------------------
                            Total      Total      Total      Total     Imperv       Perv      Total       Total     Peak  Runoff
                           Precip      Runon       Evap      Infil     Runoff     Runoff     Runoff      Runoff   Runoff   Coeff
  Subcatchment                 mm         mm         mm         mm         mm         mm         mm    10^6 ltr      LPS
  ------------------------------------------------------------------------------------------------------------------------------
  sub60                     40.39       0.00       0.00       1.73      34.33       3.11      37.45        0.49   277.71   0.927
  sub61                     40.39       0.00       0.00       2.50      32.38       4.37      36.75        0.67   378.93   0.910
  sub62                     40.39       0.00       0.00       1.16      35.87       2.08      37.94        1.04   533.18   0.940
  sub63                     40.39       0.00       0.00       4.56      27.70       7.16      34.86        0.79   403.64   0.863
  sub64                     40.39       0.00       0.00       2.31      33.12       3.75      36.87        0.89   416.86   0.913
  sub65                     40.39       0.00       0.00       2.00      33.88       3.25      37.13        1.02   464.08   0.919
  sub66                     40.39       0.00       0.00       5.49      27.60       6.22      33.82        1.58   572.75   0.837
  sub67                     40.39       0.00       0.00       1.12      35.91       2.11      38.02        0.71   434.04   0.941
  sub68                     40.39       0.00       0.00       2.07      33.54       3.59      37.13        1.02   542.75   0.919
  sub69                     40.39       0.00       0.00       1.79      34.21       4.27      38.48        1.42   635.45   0.953
  sub70                     40.39       0.00       0.00       5.77      26.49       7.96      34.46        1.00   329.69   0.853
  sub71                     40.39       0.00       0.00       1.18      35.83       2.05      37.88        0.99   456.48   0.938
  sub72                     40.39       0.00       0.00       1.05      36.16       1.78      37.94        0.52   215.16   0.939
  
  
  ******************
  Node Depth Summary
  ******************
  
  ---------------------------------------------------------------------------------
                                 Average  Maximum  Maximum  Time of Max    Reported
                                   Depth    Depth      HGL   Occurrence   Max Depth
  Node                 Type       Meters   Meters   Meters  days hr:min      Meters
  ---------------------------------------------------------------------------------
  WS02003060           JUNCTION     0.24     0.38     5.31     0  02:14        0.38
  WS02003066           JUNCTION     0.20     0.29     5.85     0  02:13        0.29
  WS02003067           JUNCTION     0.52     0.69     6.01     0  02:13        0.69
  WS02003069           JUNCTION     0.26     0.42     5.00     0  02:14        0.42
  WS02003072           JUNCTION     0.33     0.49     4.86     0  02:15        0.49
  WS02003073           JUNCTION     0.19     0.29     4.36     0  02:16        0.29
  WS02004401           JUNCTION     0.59     0.84     6.84     0  02:10        0.84
  WS02004402           JUNCTION     0.63     0.87     6.83     0  02:11        0.87
  WS02004403           JUNCTION     0.65     0.88     6.81     0  02:11        0.88
  WS02004404           JUNCTION     0.73     0.96     6.81     0  02:11        0.95
  WS02004405           JUNCTION     0.73     0.95     6.80     0  02:11        0.95
  WS02004406           JUNCTION     0.74     0.95     6.78     0  02:11        0.95
  WS02004407           JUNCTION     0.18     0.29     6.61     0  02:11        0.29
  WS02004409           JUNCTION     0.40     0.65     6.42     0  02:12        0.65
  WS02004410           JUNCTION     0.43     0.67     6.39     0  02:12        0.66
  WS02004411           JUNCTION     0.45     0.68     6.36     0  02:12        0.68
  WS02004412           JUNCTION     0.47     0.68     6.32     0  02:13        0.68
  WS02004413           JUNCTION     0.64     0.85     6.32     0  02:13        0.84
  WS02006109           JUNCTION     0.64     1.24     7.85     0  00:00        0.97
  WS02006110           JUNCTION     0.65     1.45     8.04     0  00:00        0.92
  WS02006111           JUNCTION     0.18     1.67     8.37     0  00:00        0.56
  WS02006112           JUNCTION     0.75     2.68     8.56     0  00:00        1.29
  WS02006113           JUNCTION     0.27     1.50     8.40     0  00:00        0.45
  WS02006115           JUNCTION     0.47     1.69     7.83     0  00:00        0.86
  WS02006116           JUNCTION     0.56     1.11     7.15     0  00:00        0.82
  WS02006228           JUNCTION     0.63     1.64     8.29     0  00:00        1.01
  WS02006229           JUNCTION     0.59     1.31     8.00     0  00:00        1.02
  WS02006230           JUNCTION     0.57     1.35     8.09     0  02:05        1.14
  WS02006231           JUNCTION     0.40     1.09     8.21     0  02:05        0.89
  WS02006232           JUNCTION     0.53     1.23     8.27     0  02:05        1.12
  WS02006234           JUNCTION     0.44     1.31     8.47     0  02:05        1.31
  WS02006235           JUNCTION     0.47     1.51     8.67     0  02:05        1.51
  WS02006238           JUNCTION     0.50     1.57     8.71     0  02:05        1.57
  WS02006239           JUNCTION     0.47     1.60     8.81     0  02:05        1.60
  WS02006240           JUNCTION     0.43     1.58     8.88     0  02:05        1.58
  WS02006242           JUNCTION     0.51     1.55     8.82     0  01:55        1.55
  WS02006243           JUNCTION     0.41     1.42     8.84     0  01:55        1.41
  WS02006245           JUNCTION     0.42     1.33     8.81     0  01:55        1.30
  WS02006247           JUNCTION     0.45     1.27     8.77     0  01:55        1.24
  WS02006248           JUNCTION     0.40     1.10     8.69     0  01:55        1.10
  WS02006249           JUNCTION     0.44     1.09     8.69     0  01:49        1.09
  WS02006251           JUNCTION     0.44     1.51     9.18     0  02:05        1.15
  WS02006252           JUNCTION     0.36     1.50     9.74     0  01:45        0.71
  WS02006256           JUNCTION     0.73     2.35     9.28     0  01:44        2.35
  WSF200               JUNCTION     0.17     0.28     5.52     0  02:13        0.28
  YS02001580           JUNCTION     0.04     1.05     9.59     0  01:38        0.77
  YS02001583           JUNCTION     0.07     1.14     9.64     0  01:38        0.82
  YS02001586           JUNCTION     0.10     1.13     9.30     0  01:37        1.13
  YS02001590           JUNCTION     0.17     1.40     9.26     0  01:37        1.37
  YS02001593           JUNCTION     0.12     1.46     9.32     0  01:37        1.28
  YS02001596           JUNCTION     0.16     1.80     9.22     0  01:35        1.65
  YS02001600           JUNCTION     0.19     1.87     9.00     0  01:37        1.86
  YS02001601           JUNCTION     0.34     2.06     8.90     0  01:37        2.06
  YS02001602           JUNCTION     0.27     1.87     8.77     0  01:38        1.87
  YS02001605           JUNCTION     0.25     1.78     8.68     0  01:38        1.77
  YS02001607           JUNCTION     0.26     1.68     8.53     0  01:38        1.64
  YS02001610           JUNCTION     0.30     1.68     8.48     0  01:38        1.68
  YS02001613           JUNCTION     0.26     1.70     8.54     0  01:38        1.65
  YS02001616           JUNCTION     0.21     1.61     8.52     0  01:38        1.57
  YS02001619           JUNCTION     0.19     1.61     8.54     0  01:38        1.56
  YS02001622           JUNCTION     0.18     1.62     8.52     0  01:38        1.54
  YS02001625           JUNCTION     0.40     1.78     8.38     0  01:38        1.78
  YS02001629           JUNCTION     0.26     1.85     8.40     0  01:39        1.82
  YS02001633           JUNCTION     0.32     2.00     8.45     0  01:40        1.87
  YS02001641           JUNCTION     0.31     1.80     8.23     0  01:43        1.67
  YS02001644           JUNCTION     0.31     1.74     8.18     0  01:43        1.60
  YS02001647           JUNCTION     0.15     1.50     8.11     0  01:40        1.30
  YS02001649           JUNCTION     0.17     1.56     7.95     0  01:43        1.39
  YS02001652           JUNCTION     0.10     1.65     8.25     0  01:42        1.20
  YS02001655           JUNCTION     0.07     0.97     7.82     0  01:43        0.96
  YS02001658           JUNCTION     0.05     0.67     7.81     0  01:43        0.65
  YS02001661           JUNCTION     0.09     0.34     7.75     0  01:42        0.34
  YS02001664           JUNCTION     0.03     0.24     8.17     0  01:40        0.24
  YS02001745           JUNCTION     0.03     0.22     7.74     0  01:40        0.22
  YS02001748           JUNCTION     0.04     0.59     7.66     0  01:44        0.56
  YS02001751           JUNCTION     0.06     0.79     7.66     0  01:44        0.75
  YS02001754           JUNCTION     0.08     1.70     8.30     0  01:43        1.04
  YS02001757           JUNCTION     0.19     1.65     7.92     0  01:43        1.36
  YS02001759           JUNCTION     0.14     1.58     7.94     0  01:43        1.28
  YS02001762           JUNCTION     0.13     1.70     8.10     0  01:43        1.25
  YS02001765           JUNCTION     0.12     1.76     8.21     0  01:43        1.21
  YS02001767           JUNCTION     0.12     1.82     8.31     0  01:43        1.18
  YS02001770           JUNCTION     0.13     1.93     8.42     0  01:43        1.18
  YS02001774           JUNCTION     0.19     1.99     8.41     0  01:43        1.25
  YS02001779           JUNCTION     0.07     1.68     8.37     0  01:42        0.98
  YS02001783           JUNCTION     0.13     1.32     7.46     0  01:41        1.20
  YS02001784           JUNCTION     0.14     1.16     7.23     0  01:41        1.09
  YS02001786           JUNCTION     0.12     0.91     6.94     0  01:41        0.85
  YS02001788           JUNCTION     0.08     0.61     6.59     0  01:43        0.61
  YS02001790           JUNCTION     0.10     0.71     6.35     0  01:48        0.70
  YS02001791           JUNCTION     0.06     0.43     5.90     0  01:48        0.42
  YS02001793           JUNCTION     0.03     0.25     5.09     0  01:45        0.25
  YS02001882           JUNCTION     0.18     1.83     8.55     0  01:39        1.58
  YS02001884           JUNCTION     0.25     1.93     8.55     0  01:39        1.68
  YS02001887           JUNCTION     0.31     1.93     8.47     0  01:39        1.76
  YS02001890           JUNCTION     0.33     1.81     8.32     0  01:39        1.78
  YS02001895           JUNCTION     0.15     1.75     8.50     0  01:39        1.53
  YS02001898           JUNCTION     0.16     1.77     8.51     0  01:39        1.54
  YS02001901           JUNCTION     0.25     1.69     8.30     0  01:39        1.65
  YS02001904           JUNCTION     0.23     1.64     8.27     0  01:41        1.63
  YS02001907           JUNCTION     0.49     1.96     8.25     0  01:41        1.96
  YS02001910           JUNCTION     0.33     1.98     8.49     0  01:41        1.93
  YS02001915           JUNCTION     0.17     2.00     8.72     0  01:39        1.89
  YS02001918           JUNCTION     0.08     1.81     8.88     0  01:41        1.81
  YS02001920           JUNCTION     0.13     2.14     9.15     0  01:41        1.87
  YS02001923           JUNCTION     0.06     2.03     9.29     0  01:41        1.62
  YS02001926           JUNCTION     0.09     1.90     9.35     0  01:41        1.44
  YS02001929           JUNCTION     0.05     1.78     9.47     0  01:41        1.23
  YS02006553           JUNCTION     0.49     1.99     8.28     0  01:41        1.95
  YS02006556           JUNCTION     0.47     1.99     8.30     0  01:41        1.90
  YS02006558           JUNCTION     0.50     2.02     8.29     0  01:41        1.94
  YS02006561           JUNCTION     0.08     1.03     7.69     0  01:41        0.85
  YS02163301           JUNCTION     0.28     1.92     8.44     0  01:40        1.83
  YS02163601           JUNCTION     0.35     1.96     8.36     0  01:40        1.83
  YS02164001           JUNCTION     0.30     1.85     8.30     0  01:40        1.70
  CC-1                 OUTFALL      0.00     0.00     0.00     0  00:00        0.00
  CC-2                 OUTFALL      0.00     0.00     0.00     0  00:00        0.00
  JK-1                 OUTFALL      0.00     0.00     0.00     0  00:00        0.00
  JK-2                 OUTFALL      0.00     0.00     0.00     0  00:00        0.00
  WSC                  OUTFALL      0.19     0.29     0.96     0  02:16        0.29
  CC-storage           STORAGE      0.77     1.42     6.92     0  02:05        1.42
  JK-storage           STORAGE      1.34     4.21     5.01     0  01:55        4.11
  
  
  *******************
  Node Inflow Summary
  *******************
  
  -------------------------------------------------------------------------------------------------
                                  Maximum  Maximum                  Lateral       Total        Flow
                                  Lateral    Total  Time of Max      Inflow      Inflow     Balance
                                   Inflow   Inflow   Occurrence      Volume      Volume       Error
  Node                 Type           LPS      LPS  days hr:min    10^6 ltr    10^6 ltr     Percent
  -------------------------------------------------------------------------------------------------
  WS02003060           JUNCTION     16.53   531.60     0  02:13       0.476        6.54       0.035
  WS02003066           JUNCTION      0.00   514.40     0  02:13           0        6.07       0.021
  WS02003067           JUNCTION      0.00   514.07     0  02:13           0        6.07       0.067
  WS02003069           JUNCTION      0.32   532.05     0  02:14     0.00922        6.55       0.056
  WS02003072           JUNCTION      0.00   530.42     0  02:14           0        6.55       0.101
  WS02003073           JUNCTION      1.82   531.02     0  02:15      0.0524        6.59       0.080
  WS02004401           JUNCTION      0.00  1786.04     0  00:00           0        6.18       0.175
  WS02004402           JUNCTION      0.00  1248.69     0  00:01           0        6.17       0.176
  WS02004403           JUNCTION      0.00   929.44     0  00:01           0        6.16       0.173
  WS02004404           JUNCTION      0.00   877.02     0  00:01           0        6.15       0.169
  WS02004405           JUNCTION      0.00   827.31     0  00:01           0        6.14       0.180
  WS02004406           JUNCTION      0.00   768.45     0  00:02           0        6.13       0.349
  WS02004407           JUNCTION      0.00   526.51     0  02:11           0        6.11       0.016
  WS02004409           JUNCTION      0.00   526.00     0  02:11           0        6.11       0.041
  WS02004410           JUNCTION      0.00   522.21     0  02:12           0         6.1       0.070
  WS02004411           JUNCTION      0.00   519.47     0  02:12           0         6.1       0.090
  WS02004412           JUNCTION      0.00   517.78     0  02:12           0        6.09       0.118
  WS02004413           JUNCTION      0.00   515.54     0  02:13           0        6.09       0.217
  WS02006109           JUNCTION      0.00  1446.81     0  00:00           0        6.08      -0.067
  WS02006110           JUNCTION      0.00   556.03     0  02:05           0        6.05      -0.900
  WS02006111           JUNCTION      0.00  1180.41     0  00:00           0        6.11      -0.702
  WS02006112           JUNCTION      0.00  2307.30     0  00:00           0        6.15       0.003
  WS02006113           JUNCTION      0.00   565.78     0  02:05           0        6.07      -0.623
  WS02006115           JUNCTION      0.00   953.54     0  00:00           0        6.12      -0.585
  WS02006116           JUNCTION      0.00  1264.47     0  00:00           0        6.16      -0.380
  WS02006228           JUNCTION      0.00   869.18     0  00:00           0        6.07      -0.001
  WS02006229           JUNCTION      0.00   554.88     0  02:05           0        6.05      -0.050
  WS02006230           JUNCTION     10.28   706.67     0  00:00       0.296        6.04       0.033
  WS02006231           JUNCTION      0.00   596.28     0  02:05           0        5.73       0.009
  WS02006232           JUNCTION      0.00   594.42     0  02:05           0        5.73       0.067
  WS02006234           JUNCTION      0.00   584.91     0  02:05           0        5.72      -0.019
  WS02006235           JUNCTION      0.00   567.37     0  02:05           0        5.72       0.032
  WS02006238           JUNCTION      0.00   424.81     0  02:10           0        5.49      -0.031
  WS02006239           JUNCTION      0.00   423.77     0  02:10           0        5.49      -0.059
  WS02006240           JUNCTION      0.00   420.82     0  01:50           0        5.49       0.001
  WS02006242           JUNCTION      0.00   421.16     0  01:50           0        5.49       0.037
  WS02006243           JUNCTION      0.00   420.35     0  01:50           0        5.48      -0.067
  WS02006245           JUNCTION      0.00   420.09     0  02:10           0        5.49       0.111
  WS02006247           JUNCTION      0.00   420.73     0  02:10           0        5.49       0.017
  WS02006248           JUNCTION      0.00   420.71     0  02:10           0        5.49      -0.004
  WS02006249           JUNCTION      0.00   425.87     0  01:49           0        5.55       0.127
  WS02006251           JUNCTION      0.00   406.85     0  01:49           0        5.55       0.010
  WS02006252           JUNCTION      0.00   400.00     0  01:45           0        5.54      -0.193
  WS02006256           JUNCTION      0.00   300.00     0  01:44           0       0.338      -0.287
  WSF200               JUNCTION      0.00   514.58     0  02:13           0        6.07       0.007
  YS02001580           JUNCTION      0.00   179.98     0  01:38           0     0.00477       0.638
  YS02001583           JUNCTION      0.00   261.37     0  01:38           0      0.0149     -11.328
  YS02001586           JUNCTION    329.69   329.77     0  01:44       0.996        1.01       0.185
  YS02001590           JUNCTION      0.00   317.68     0  01:44           0       0.989      -0.028
  YS02001593           JUNCTION      0.00   317.66     0  01:43           0       0.989       0.006
  YS02001596           JUNCTION      0.00   317.64     0  01:43           0       0.989      -0.019
  YS02001600           JUNCTION      0.00   317.67     0  01:44           0       0.989      -0.005
  YS02001601           JUNCTION    635.45   952.48     0  01:42        1.43        2.41       0.015
  YS02001602           JUNCTION      0.00   590.27     0  01:38           0        1.91       0.012
  YS02001605           JUNCTION      0.00   590.23     0  01:38           0        1.85       0.013
  YS02001607           JUNCTION      0.00   590.17     0  01:38           0        1.85       0.094
  YS02001610           JUNCTION      0.00   571.07     0  01:38           0        1.85       0.116
  YS02001613           JUNCTION      0.00   540.14     0  01:38           0        1.79       0.077
  YS02001616           JUNCTION      0.00   484.81     0  02:04           0        1.79       0.009
  YS02001619           JUNCTION    572.75   911.46     0  01:40        1.58        3.37      -0.007
  YS02001622           JUNCTION      0.00   911.23     0  01:40           0        3.37      -0.003
  YS02001625           JUNCTION      0.00   911.27     0  01:40           0        3.37       0.265
  YS02001629           JUNCTION      0.00   911.10     0  01:40           0        3.32       0.012
  YS02001633           JUNCTION    464.08  1367.62     0  01:40        1.02        4.34       0.070
  YS02001641           JUNCTION      0.00  1367.13     0  01:40           0        4.34       0.061
  YS02001644           JUNCTION    416.86  1780.98     0  01:40       0.886        5.22       0.061
  YS02001647           JUNCTION      0.00  1781.42     0  01:40           0        5.21       0.009
  YS02001649           JUNCTION      0.00  2186.11     0  01:40           0           6       0.003
  YS02001652           JUNCTION      0.00   466.65     0  01:40           0        0.79      -0.286
  YS02001655           JUNCTION      0.00   428.96     0  01:40           0       0.791       0.199
  YS02001658           JUNCTION      0.00   404.37     0  01:40           0       0.791       0.000
  YS02001661           JUNCTION      0.00   403.43     0  01:40           0       0.791       0.031
  YS02001664           JUNCTION    403.64   403.64     0  01:40       0.791       0.791      -0.002
  YS02001745           JUNCTION    277.71   277.71     0  01:40       0.492       0.492       0.225
  YS02001748           JUNCTION      0.00   277.50     0  01:40           0       0.491      -0.303
  YS02001751           JUNCTION      0.00   329.92     0  01:44           0       0.493       0.337
  YS02001754           JUNCTION      0.00   363.95     0  01:43           0       0.491      -0.497
  YS02001757           JUNCTION      0.00  2935.11     0  01:44           0        8.21       0.065
  YS02001759           JUNCTION    378.93   941.68     0  01:42       0.675        1.71      -0.015
  YS02001762           JUNCTION      0.00   590.70     0  01:42           0        1.04       0.004
  YS02001765           JUNCTION      0.00   593.71     0  01:42           0        1.04      -0.001
  YS02001767           JUNCTION      0.00   593.22     0  01:42           0        1.04      -0.005
  YS02001770           JUNCTION    533.18   591.82     0  01:42        1.04        1.08      -0.017
  YS02001774           JUNCTION      0.00   155.69     0  01:42           0      0.0694       1.483
  YS02001779           JUNCTION      0.00   155.86     0  01:42           0       0.024      -0.662
  YS02001783           JUNCTION      0.00  1145.77     0  01:42           0        3.06      -0.002
  YS02001784           JUNCTION      0.00  1145.82     0  01:42           0        3.06      -0.002
  YS02001786           JUNCTION      0.00  1145.76     0  01:42           0        3.06       0.004
  YS02001788           JUNCTION      0.00  1147.79     0  01:41           0        3.06       0.003
  YS02001790           JUNCTION      0.00  1157.23     0  01:43           0        3.06       0.020
  YS02001791           JUNCTION      0.00  1252.07     0  01:48           0        3.06      -0.021
  YS02001793           JUNCTION      0.00  1220.45     0  01:49           0        3.06       0.006
  YS02001882           JUNCTION      0.00    83.95     0  01:39           0      0.0126       2.474
  YS02001884           JUNCTION      0.00   113.23     0  01:39           0      0.0486       3.881
  YS02001887           JUNCTION    434.04   458.73     0  01:39       0.707       0.741       0.512
  YS02001890           JUNCTION      0.00   461.39     0  01:39           0       0.701       0.618
  YS02001895           JUNCTION      0.00   463.70     0  01:39           0       0.697       0.271
  YS02001898           JUNCTION      0.00   453.18     0  01:39           0       0.695      -0.125
  YS02001901           JUNCTION      0.00   472.06     0  01:39           0       0.697       0.368
  YS02001904           JUNCTION      0.00   473.80     0  01:39           0       0.707       0.307
  YS02001907           JUNCTION      0.00  1255.65     0  01:42           0        2.22       0.738
  YS02001910           JUNCTION      0.00   882.84     0  01:42           0        1.51       0.405
  YS02001915           JUNCTION    456.48   882.95     0  01:42       0.991        1.56       0.040
  YS02001918           JUNCTION      0.00   428.77     0  01:42           0       0.592      -0.025
  YS02001920           JUNCTION      0.00   428.99     0  01:42           0       0.567       0.069
  YS02001923           JUNCTION      0.00   470.96     0  01:41           0       0.552      -0.158
  YS02001926           JUNCTION      0.00   609.56     0  01:41           0       0.535       0.055
  YS02001929           JUNCTION    215.16   380.08     0  01:41       0.522       0.524      -0.009
  YS02006553           JUNCTION      0.00   786.44     0  01:50           0         2.1       0.521
  YS02006556           JUNCTION      0.00   787.11     0  01:50           0        2.11       0.331
  YS02006558           JUNCTION    542.75  1148.55     0  01:40        1.02         3.1       0.102
  YS02006561           JUNCTION      0.00  1148.01     0  01:40           0        3.06      -0.004
  YS02163301           JUNCTION      0.00   911.56     0  01:40           0        3.32       0.036
  YS02163601           JUNCTION      0.00  1367.40     0  01:40           0        4.33       0.110
  YS02164001           JUNCTION      0.00  1367.54     0  01:40           0        4.33       0.048
  CC-1                 OUTFALL       0.00   683.00     0  01:50           0        2.66       0.000
  CC-2                 OUTFALL       0.00   683.00     0  01:57           0       0.867       0.000
  JK-1                 OUTFALL       0.00  1000.00     0  00:05           0        1.63       0.000
  JK-2                 OUTFALL       0.00  1000.00     0  00:05           0        1.21       0.000
  WSC                  OUTFALL       0.00   529.33     0  02:16           0        6.59       0.000
  CC-storage           STORAGE       0.00  2935.14     0  01:45           0        10.4      -0.298
  JK-storage           STORAGE       0.00  1220.42     0  01:49           0        3.21      -0.520
  
  
  **********************
  Node Surcharge Summary
  **********************
  
  Surcharging occurs when water rises above the top of the highest conduit.
  ---------------------------------------------------------------------
                                               Max. Height   Min. Depth
                                   Hours       Above Crown    Below Rim
  Node                 Type      Surcharged         Meters       Meters
  ---------------------------------------------------------------------
  WS02006109           JUNCTION        1.97          0.416        1.404
  WS02006110           JUNCTION        0.17          0.544        1.306
  WS02006111           JUNCTION        0.01          0.856        1.014
  WS02006112           JUNCTION        0.17          1.680        0.000
  WS02006113           JUNCTION        0.01          0.705        1.225
  WS02006115           JUNCTION        0.01          0.682        1.568
  WS02006116           JUNCTION        0.01          0.053        2.237
  WS02006228           JUNCTION        1.96          0.810        1.390
  WS02006229           JUNCTION        1.98          0.510        1.940
  WS02006230           JUNCTION        0.16          0.270        1.300
  WS02006231           JUNCTION        0.21          0.380        1.150
  WS02006232           JUNCTION        1.98          0.528        0.952
  WS02006234           JUNCTION        0.37          0.589        0.651
  WS02006235           JUNCTION        1.94          0.799        0.491
  WS02006238           JUNCTION        1.96          0.846        0.584
  WS02006239           JUNCTION        1.95          0.864        0.426
  WS02006240           JUNCTION        1.96          0.874        0.516
  WS02006242           JUNCTION        1.97          0.820        0.000
  WS02006243           JUNCTION        1.95          0.705        0.065
  WS02006245           JUNCTION        1.94          0.616        0.234
  WS02006247           JUNCTION        1.95          0.558        0.202
  WS02006248           JUNCTION        1.94          0.380        0.000
  WS02006249           JUNCTION        1.93          0.390        0.000
  WS02006251           JUNCTION        0.24          0.485        0.695
  WS02006252           JUNCTION        2.03          1.100        0.000
  WS02006256           JUNCTION        7.85          2.050        0.000
  YS02001580           JUNCTION        0.32          0.450        0.000
  YS02001583           JUNCTION        0.33          0.500        0.000
  YS02001586           JUNCTION        0.50          0.510        0.000
  YS02001590           JUNCTION        0.57          0.750        0.000
  YS02001593           JUNCTION        0.57          0.840        0.000
  YS02001596           JUNCTION        0.66          1.070        0.000
  YS02001600           JUNCTION        0.79          1.190        0.000
  YS02001601           JUNCTION        1.18          1.440        0.000
  YS02001602           JUNCTION        1.04          1.270        0.000
  YS02001605           JUNCTION        0.98          1.180        0.000
  YS02001607           JUNCTION        0.53          0.680        0.000
  YS02001610           JUNCTION        0.55          0.680        0.000
  YS02001613           JUNCTION        0.52          0.700        0.000
  YS02001616           JUNCTION        0.48          0.610        0.000
  YS02001619           JUNCTION        0.47          0.610        0.000
  YS02001622           JUNCTION        0.46          0.620        0.000
  YS02001625           JUNCTION        0.63          0.780        0.000
  YS02001629           JUNCTION        0.41          0.470        0.000
  YS02001633           JUNCTION        0.64          0.980        0.080
  YS02001641           JUNCTION        0.58          0.797        0.303
  YS02001644           JUNCTION        0.55          0.744        0.176
  YS02001647           JUNCTION        0.34          0.496        0.404
  YS02001649           JUNCTION        0.45          0.564        0.486
  YS02001652           JUNCTION        0.22          0.623        0.507
  YS02001754           JUNCTION        0.01          0.645        0.505
  YS02001757           JUNCTION        0.49          0.654        0.556
  YS02001759           JUNCTION        0.40          0.578        0.632
  YS02001762           JUNCTION        0.35          0.699        0.451
  YS02001765           JUNCTION        0.31          0.760        0.340
  YS02001767           JUNCTION        0.27          0.823        0.207
  YS02001770           JUNCTION        0.24          0.896        0.024
  YS02001774           JUNCTION        0.34          0.992        0.058
  YS02001779           JUNCTION        0.01          0.680        0.000
  YS02001783           JUNCTION        0.36          0.516        1.084
  YS02001784           JUNCTION        0.33          0.361        1.129
  YS02001786           JUNCTION        0.22          0.110        1.320
  YS02001882           JUNCTION        0.30          0.830        0.000
  YS02001884           JUNCTION        0.31          0.870        0.000
  YS02001887           JUNCTION        0.35          0.884        0.066
  YS02001890           JUNCTION        0.36          0.760        0.000
  YS02001895           JUNCTION        0.29          0.750        0.000
  YS02001898           JUNCTION        0.28          0.740        0.000
  YS02001901           JUNCTION        0.34          0.692        0.178
  YS02001904           JUNCTION        0.33          0.642        0.208
  YS02001907           JUNCTION        0.53          0.950        0.000
  YS02001910           JUNCTION        0.39          0.982        0.118
  YS02001915           JUNCTION        0.30          1.000        0.000
  YS02001918           JUNCTION        0.21          0.810        0.000
  YS02001920           JUNCTION        0.23          1.140        0.000
  YS02001923           JUNCTION        0.01          0.820        0.000
  YS02001926           JUNCTION        0.01          0.900        0.000
  YS02001929           JUNCTION        0.01          0.780        0.000
  YS02006553           JUNCTION        0.55          0.991        0.199
  YS02006556           JUNCTION        0.46          0.945        0.405
  YS02006558           JUNCTION        0.45          0.924        0.476
  YS02006561           JUNCTION        0.17          0.227        0.923
  YS02163301           JUNCTION        0.63          0.922        0.108
  YS02163601           JUNCTION        0.67          0.961        0.119
  YS02164001           JUNCTION        0.59          0.846        0.254
  
  
  *********************
  Node Flooding Summary
  *********************
  
  Flooding refers to all water that overflows a node, whether it ponds or not.
  --------------------------------------------------------------------------
                                                             Total   Maximum
                                 Maximum   Time of Max       Flood    Ponded
                        Hours       Rate    Occurrence      Volume     Depth
  Node                 Flooded       LPS   days hr:min    10^6 ltr    Meters
  --------------------------------------------------------------------------
  WS02006112              0.01   1405.86      0  00:00       0.047     0.000
  WS02006242              0.01      4.91      0  02:05       0.000     0.000
  WS02006248              0.01     11.19      0  01:55       0.000     0.000
  WS02006249              0.23    101.67      0  01:49       0.054     0.000
  WS02006252              0.01      0.91      0  01:45       0.000     0.000
  WS02006256              0.31    267.42      0  01:44       0.109     0.000
  YS02001580              0.01    130.62      0  01:38       0.001     0.000
  YS02001583              0.01    228.98      0  01:38       0.000     0.000
  YS02001586              0.13    112.16      0  01:38       0.006     0.000
  YS02001590              0.01    112.34      0  01:37       0.000     0.000
  YS02001593              0.01     92.28      0  01:37       0.000     0.000
  YS02001596              0.01     60.55      0  01:35       0.000     0.000
  YS02001600              0.01      7.91      0  01:37       0.000     0.000
  YS02001601              0.43    554.65      0  01:42       0.508     0.000
  YS02001602              0.29     62.01      0  01:48       0.052     0.000
  YS02001605              0.01      2.91      0  01:38       0.000     0.000
  YS02001607              0.01     93.54      0  01:38       0.000     0.000
  YS02001610              0.20    114.60      0  01:45       0.058     0.000
  YS02001613              0.01    164.61      0  01:38       0.001     0.000
  YS02001616              0.01    107.17      0  01:38       0.000     0.000
  YS02001619              0.01     72.70      0  01:38       0.000     0.000
  YS02001622              0.01     78.65      0  01:38       0.000     0.000
  YS02001625              0.16    152.37      0  01:44       0.039     0.000
  YS02001629              0.01    314.37      0  01:39       0.002     0.000
  YS02001779              0.01    125.49      0  01:42       0.000     0.000
  YS02001882              0.01     14.88      0  01:39       0.000     0.000
  YS02001884              0.01     16.23      0  01:39       0.000     0.000
  YS02001890              0.01     74.12      0  01:39       0.000     0.000
  YS02001895              0.01     80.27      0  01:39       0.000     0.000
  YS02001898              0.01    124.76      0  01:39       0.000     0.000
  YS02001907              0.14    629.54      0  01:42       0.121     0.000
  YS02001915              0.01     75.64      0  01:39       0.000     0.000
  YS02001918              0.01     95.82      0  01:42       0.001     0.000
  YS02001920              0.01     17.24      0  01:41       0.000     0.000
  YS02001923              0.01    396.59      0  01:41       0.001     0.000
  YS02001926              0.01    404.38      0  01:41       0.000     0.000
  YS02001929              0.01    119.62      0  01:41       0.000     0.000
  
  
  **********************
  Storage Volume Summary
  **********************
  
  --------------------------------------------------------------------------------------------------
                         Average     Avg  Evap Exfil       Maximum     Max    Time of Max    Maximum
                          Volume    Pcnt  Pcnt  Pcnt        Volume    Pcnt     Occurrence    Outflow
  Storage Unit           1000 m3    Full  Loss  Loss       1000 m3    Full    days hr:min        LPS
  --------------------------------------------------------------------------------------------------
  CC-storage               2.149      34     0     0         3.961      62       0  02:05    1766.00
  JK-storage               0.067      23     0     0         0.212      73       0  01:55    2300.00
  
  
  ***********************
  Outfall Loading Summary
  ***********************
  
  -----------------------------------------------------------
                         Flow       Avg       Max       Total
                         Freq      Flow      Flow      Volume
  Outfall Node           Pcnt       LPS       LPS    10^6 ltr
  -----------------------------------------------------------
  CC-1                   8.27    683.00    683.00       2.659
  CC-2                   3.41    683.00    683.00       0.867
  JK-1                   4.79   1000.00   1000.00       1.626
  JK-2                   3.80   1000.00   1000.00       1.208
  WSC                  100.00    234.20    529.33       6.587
  -----------------------------------------------------------
  System                24.05   3600.20    529.33      12.946
  
  
  ********************
  Link Flow Summary
  ********************
  
  -----------------------------------------------------------------------------
                                 Maximum  Time of Max   Maximum    Max/    Max/
                                  |Flow|   Occurrence   |Veloc|    Full    Full
  Link                 Type          LPS  days hr:min     m/sec    Flow   Depth
  -----------------------------------------------------------------------------
  1                    CONDUIT    529.33     0  02:16      2.79    0.18    0.29
  WS02003060WS02003069 CONDUIT    531.73     0  02:14      1.63    0.21    0.33
  WS02003066WSF200     CONDUIT    514.58     0  02:13      2.82    0.09    0.22
  WS02003067WS02003066 CONDUIT    514.40     0  02:13      1.18    0.16    0.41
  WS02003069WS02003072 CONDUIT    530.42     0  02:14      1.35    0.26    0.38
  WS02003072WS02003073 CONDUIT    529.20     0  02:15      1.41    1.14    0.37
  WS02004401WS02004402 CONDUIT   1248.69     0  00:01      2.52    1.50    0.85
  WS02004402WS02004403 CONDUIT    929.44     0  00:01      2.21    1.34    0.88
  WS02004403WS02004404 CONDUIT    877.02     0  00:01      2.01    0.63    0.92
  WS02004404WS02004405 CONDUIT    827.31     0  00:01      2.30    8.11    0.95
  WS02004405WS02004406 CONDUIT    768.45     0  00:02      2.19    1.52    0.95
  WS02004406WS02004407 CONDUIT    526.51     0  02:11      1.03    0.24    0.62
  WS02004407WS02004409 CONDUIT    526.00     0  02:11      2.06    0.19    0.47
  WS02004409WS02004410 CONDUIT    522.21     0  02:12      1.39    0.68    0.66
  WS02004410WS02004411 CONDUIT    519.47     0  02:12      1.32    0.71    0.67
  WS02004411WS02004412 CONDUIT    517.78     0  02:12      1.30    0.74    0.68
  WS02004412WS02004413 CONDUIT    515.54     0  02:13      1.26    0.35    0.76
  WS02004413WS02003067 CONDUIT    514.07     0  02:13      1.08    0.22    0.58
  WS02006109WS02006110 CONDUIT   1446.81     0  00:00      2.88    2.78    1.00
  WS02006110WS02006113 CONDUIT    565.78     0  02:05      1.37    0.51    1.00
  WS02006111WS02006112 CONDUIT   2307.30     0  00:00      9.18    1.10    1.00
  WS02006112WS02006115 CONDUIT    953.54     0  00:00      1.24    0.56    1.00
  WS02006113WS02006111 CONDUIT   1180.41     0  00:00      2.47    1.41    1.00
  WS02006115WS02006116 CONDUIT   1264.47     0  00:00      1.74    1.62    1.00
  WS02006116WS02004401 CONDUIT   1786.04     0  00:00      2.94    2.46    0.83
  WS02006228WS02006109 CONDUIT    869.18     0  00:00      1.91    3.80    1.00
  WS02006229WS02006228 CONDUIT    554.55     0  02:05      1.10    1.84    1.00
  WS02006230WS02006229 CONDUIT    696.39     0  00:00      1.89   15.50    1.00
  WS02006231WS02006230 CONDUIT    578.62     0  02:05      1.91    8.78    1.00
  WS02006232WS02006231 CONDUIT    596.28     0  02:05      1.80    1.25    1.00
  WS02006234WS02006232 CONDUIT    594.42     0  02:05      1.54    1.20    1.00
  WS02006235WS02006234 CONDUIT    584.91     0  02:05      1.52    6.17    1.00
  WS02006238WS02006235 CONDUIT    424.98     0  02:10      1.10    0.95    1.00
  WS02006239WS02006238 CONDUIT    424.81     0  02:10      1.10    1.36    1.00
  WS02006240WS02006239 CONDUIT    423.77     0  02:10      1.10    1.33    1.00
  WS02006242WS02006240 CONDUIT    420.82     0  01:50      1.09    1.67    1.00
  WS02006243WS02006242 CONDUIT    421.16     0  01:50      1.16    0.90    1.00
  WS02006245WS02006243 CONDUIT    420.35     0  01:50      1.15    1.24    1.00
  WS02006247WS02006245 CONDUIT    420.09     0  02:10      1.24    3.33    1.00
  WS02006248WS02006247 CONDUIT    420.73     0  02:10      1.28    0.92    1.00
  WS02006249WS02006248 CONDUIT    420.71     0  02:10      1.31    2.30    1.00
  WS02006251WS02006249 CONDUIT    425.87     0  01:49      1.75    1.23    1.00
  WS02006252WS02006251 CONDUIT    406.85     0  01:49     17.90    1.49    1.00
  WS02006256WS02006235 CONDUIT    248.08     0  01:45      3.51    2.63    1.00
  WSF200WS02003060     CONDUIT    515.08     0  02:13      2.04    0.11    0.27
  YS02001580YS02001583 CONDUIT    179.98     0  01:38      0.93    0.70    1.00
  YS02001583YS02001586 CONDUIT    202.44     0  01:38      0.94    0.31    1.00
  YS02001586YS02001590 CONDUIT    317.68     0  01:44      1.31    0.56    1.00
  YS02001590YS02001593 CONDUIT    317.66     0  01:43      1.12    1.99    1.00
  YS02001593YS02001596 CONDUIT    317.64     0  01:43      1.71    0.50    1.00
  YS02001596YS02001600 CONDUIT    317.67     0  01:44      1.18    0.62    1.00
  YS02001600YS02001601 CONDUIT    317.62     0  01:44      1.12    0.55    1.00
  YS02001601YS02001602 CONDUIT    590.27     0  01:38      2.09    2.13    1.00
  YS02001602YS02001605 CONDUIT    590.23     0  01:38      2.09   12.49    1.00
  YS02001605YS02001607 CONDUIT    590.17     0  01:38      2.09    3.24    1.00
  YS02001607YS02001610 CONDUIT    571.07     0  01:38      0.77    0.54    1.00
  YS02001610YS02001613 CONDUIT    540.14     0  01:38      0.73    0.62    1.00
  YS02001613YS02001616 CONDUIT    484.81     0  02:04      0.71    0.42    1.00
  YS02001616YS02001619 CONDUIT    484.95     0  02:04      0.69    0.84    1.00
  YS02001619YS02001622 CONDUIT    911.23     0  01:40      1.39    1.34    1.00
  YS02001622YS02001625 CONDUIT    911.27     0  01:40      1.16    0.49    1.00
  YS02001625YS02001629 CONDUIT    911.10     0  01:40      1.16    0.43    1.00
  YS02001629YS02163301 CONDUIT    911.56     0  01:40      1.16    1.12    1.00
  YS02001633YS02163601 CONDUIT   1367.40     0  01:40      1.74    1.44    1.00
  YS02001641YS02001644 CONDUIT   1367.34     0  01:40      1.74    4.42    1.00
  YS02001644YS02001647 CONDUIT   1781.42     0  01:40      2.31    1.05    1.00
  YS02001647YS02001649 CONDUIT   1794.61     0  01:40      2.36    0.95    1.00
  YS02001649YS02001757 CONDUIT   2192.28     0  01:40      2.79    1.33    1.00
  YS02001652YS02001649 CONDUIT    462.98     0  01:40      0.95    0.23    1.00
  YS02001655YS02001652 CONDUIT    466.65     0  01:40      1.73    0.23    0.98
  YS02001658YS02001655 CONDUIT    428.96     0  01:40      2.08    0.18    0.81
  YS02001661YS02001658 CONDUIT    404.37     0  01:40      2.30    0.16    0.46
  YS02001664YS02001661 CONDUIT    403.43     0  01:40      2.13    0.13    0.29
  YS02001745YS02001748 CONDUIT    277.50     0  01:40      2.16    0.11    0.36
  YS02001748YS02001751 CONDUIT    329.92     0  01:44      1.81    0.17    0.68
  YS02001751YS02001754 CONDUIT    363.95     0  01:43      1.74    0.18    0.87
  YS02001754YS02001757 CONDUIT    333.24     0  01:45      0.71    0.13    1.00
  YS02001757CaochengTiaoxuchi CONDUIT   2935.14     0  01:45      3.86    1.27    1.00
  YS02001759YS02001757 CONDUIT    940.60     0  01:42      1.20    0.67    1.00
  YS02001762YS02001759 CONDUIT    590.87     0  01:42      0.75    0.68    1.00
  YS02001765YS02001762 CONDUIT    590.70     0  01:42      0.75    0.55    1.00
  YS02001767YS02001765 CONDUIT    593.71     0  01:42      0.90    0.75    1.00
  YS02001770YS02001767 CONDUIT    593.22     0  01:42      0.96    2.35    1.00
  YS02001774YS02001770 CONDUIT    155.69     0  01:42      0.26    0.10    1.00
  YS02001779YS02001774 CONDUIT    155.86     0  01:42      0.20    0.08    1.00
  YS02001783YS02001784 CONDUIT   1145.82     0  01:42      2.28    1.58    1.00
  YS02001784YS02001785 CONDUIT   1145.76     0  01:42      2.28    2.67    1.00
  YS02001786YS02001788 CONDUIT   1147.79     0  01:41      2.45    2.21    0.88
  YS02001788YS02001790 CONDUIT   1157.23     0  01:43      2.70    0.85    0.82
  YS02001790YS02001791 CONDUIT   1252.07     0  01:48      3.39    1.36    0.69
  YS02001791YS02001793 CONDUIT   1220.45     0  01:49      6.70    0.52    0.41
  YS02001793JiankangQianchi CONDUIT   1220.42     0  01:49      2.46    0.10    0.63
  YS02001882YS02001884 CONDUIT     83.95     0  01:39      0.17    0.10    1.00
  YS02001884YS02001887 CONDUIT    113.23     0  01:39      0.18    0.15    1.00
  YS02001887YS02001890 CONDUIT    461.39     0  01:39      0.59    0.79    1.00
  YS02001890YS02001895 CONDUIT    463.70     0  01:39      0.59    0.22    1.00
  YS02001895YS02001898 CONDUIT    453.18     0  01:39      0.60    0.79    1.00
  YS02001898YS02001901 CONDUIT    472.06     0  01:39      0.60    0.30    1.00
  YS02001901YS02001904 CONDUIT    473.80     0  01:39      0.60    0.73    1.00
  YS02001904YS02001907 CONDUIT    477.54     0  01:39      0.61    0.17    1.00
  YS02001907YS02006553 CONDUIT    786.44     0  01:50      0.87    0.93    1.00
  YS02001910YS02001907 CONDUIT    882.97     0  01:42      1.12    0.50    1.00
  YS02001915YS02001910 CONDUIT    882.84     0  01:42      1.12    0.44    1.00
  YS02001918YS02001915 CONDUIT    428.92     0  01:42      0.56    0.24    1.00
  YS02001920YS02001918 CONDUIT    428.77     0  01:42      0.69    0.41    1.00
  YS02001923YS02001920 CONDUIT    428.99     0  01:42      0.88    0.19    1.00
  YS02001926YS02001923 CONDUIT    360.17     0  01:43      0.97    0.51    1.00
  YS02001929YS02001926 CONDUIT    366.99     0  01:41      1.11    0.17    1.00
  YS02006553YS02006556 CONDUIT    787.11     0  01:50      1.00    0.67    1.00
  YS02006556YS02006558 CONDUIT    788.79     0  01:50      1.00    0.62    1.00
  YS02006558YS02006561 CONDUIT   1148.01     0  01:40      4.06    2.54    1.00
  YS02006561YS02001783 CONDUIT   1145.77     0  01:42      2.29    0.59    1.00
  YS02163301YS02001633 CONDUIT    911.31     0  01:40      1.16    0.86    1.00
  YS02163601YS02164001 CONDUIT   1367.54     0  01:40      1.74    1.21    1.00
  YS02164001YS02001641 CONDUIT   1367.13     0  01:40      1.74    1.87    1.00
  CC-R1                PUMP       683.00     0  01:50              1.00
  CC-R2                PUMP       683.00     0  01:57              1.00
  CC-S1                PUMP       200.00     0  00:05              1.00
  CC-S2                PUMP       200.00     0  01:45              1.00
  JK-R1                PUMP      1000.00     0  00:05              1.00
  JK-R2                PUMP      1000.00     0  00:05              1.00
  JK-S                 PUMP       300.00     0  01:44              1.00
  
  
  ***************************
  Flow Classification Summary
  ***************************
  
  -------------------------------------------------------------------------------------
                      Adjusted    ---------- Fraction of Time in Flow Class ---------- 
                       /Actual         Up    Down  Sub   Sup   Up    Down  Norm  Inlet 
  Conduit               Length    Dry  Dry   Dry   Crit  Crit  Crit  Crit  Ltd   Ctrl  
  -------------------------------------------------------------------------------------
  1                       1.00   0.00  0.00  0.00  0.00  1.00  0.00  0.00  0.22  0.00
  WS02003060WS02003069    1.00   0.00  0.00  0.00  0.98  0.02  0.00  0.00  0.67  0.00
  WS02003066WSF200        1.00   0.02  0.00  0.00  0.00  0.98  0.00  0.00  0.95  0.00
  WS02003067WS02003066    1.00   0.01  0.01  0.00  0.98  0.00  0.00  0.00  0.00  0.00
  WS02003069WS02003072    1.00   0.00  0.00  0.00  1.00  0.00  0.00  0.00  0.73  0.00
  WS02003072WS02003073    1.00   0.00  0.00  0.00  0.00  0.00  0.00  1.00  0.00  0.00
  WS02004401WS02004402    1.00   0.00  0.00  0.00  1.00  0.00  0.00  0.00  0.00  0.00
  WS02004402WS02004403    1.00   0.00  0.00  0.00  1.00  0.00  0.00  0.00  0.00  0.00
  WS02004403WS02004404    1.00   0.00  0.00  0.00  1.00  0.00  0.00  0.00  0.00  0.00
  WS02004404WS02004405    1.00   0.00  0.00  0.00  1.00  0.00  0.00  0.00  0.01  0.00
  WS02004405WS02004406    1.00   0.00  0.00  0.00  1.00  0.00  0.00  0.00  0.00  0.00
  WS02004406WS02004407    1.00   0.00  0.00  0.00  1.00  0.00  0.00  0.00  0.00  0.00
  WS02004407WS02004409    1.00   0.00  0.00  0.00  1.00  0.00  0.00  0.00  0.99  0.00
  WS02004409WS02004410    1.00   0.00  0.00  0.00  1.00  0.00  0.00  0.00  0.00  0.00
  WS02004410WS02004411    1.00   0.00  0.00  0.00  1.00  0.00  0.00  0.00  0.00  0.00
  WS02004411WS02004412    1.00   0.00  0.00  0.00  1.00  0.00  0.00  0.00  0.00  0.00
  WS02004412WS02004413    1.00   0.00  0.00  0.00  0.99  0.00  0.00  0.00  0.00  0.00
  WS02004413WS02003067    1.00   0.00  0.01  0.00  0.00  0.00  0.99  0.00  0.00  0.00
  WS02006109WS02006110    1.00   0.00  0.00  0.00  1.00  0.00  0.00  0.00  0.00  0.00
  WS02006110WS02006113    1.00   0.00  0.00  0.00  1.00  0.00  0.00  0.00  0.00  0.00
  WS02006111WS02006112    1.00   0.00  0.00  0.00  1.00  0.00  0.00  0.00  1.00  0.00
  WS02006112WS02006115    1.00   0.00  0.00  0.00  1.00  0.00  0.00  0.00  0.00  0.00
  WS02006113WS02006111    1.00   0.00  0.00  0.00  0.00  1.00  0.00  0.00  0.20  0.00
  WS02006115WS02006116    1.00   0.00  0.00  0.00  1.00  0.00  0.00  0.00  0.00  0.00
  WS02006116WS02004401    1.00   0.00  0.00  0.00  1.00  0.00  0.00  0.00  0.00  0.00
  WS02006228WS02006109    1.00   0.00  0.00  0.00  1.00  0.00  0.00  0.00  0.00  0.00
  WS02006229WS02006228    1.00   0.00  0.00  0.00  1.00  0.00  0.00  0.00  0.00  0.00
  WS02006230WS02006229    1.00   0.00  0.00  0.00  1.00  0.00  0.00  0.00  0.00  0.00
  WS02006231WS02006230    1.00   0.00  0.00  0.00  0.15  0.00  0.85  0.00  0.00  0.00
  WS02006232WS02006231    1.00   0.00  0.00  0.00  1.00  0.00  0.00  0.00  0.00  0.00
  WS02006234WS02006232    1.00   0.00  0.00  0.00  1.00  0.00  0.00  0.00  0.00  0.00
  WS02006235WS02006234    1.00   0.00  0.00  0.00  0.97  0.00  0.02  0.00  0.00  0.00
  WS02006238WS02006235    1.00   0.00  0.00  0.00  1.00  0.00  0.00  0.00  0.00  0.00
  WS02006239WS02006238    1.00   0.00  0.00  0.00  1.00  0.00  0.00  0.00  0.00  0.00
  WS02006240WS02006239    1.00   0.01  0.00  0.00  0.93  0.00  0.00  0.06  0.00  0.00
  WS02006242WS02006240    1.00   0.01  0.00  0.00  0.98  0.00  0.01  0.00  0.00  0.00
  WS02006243WS02006242    1.00   0.01  0.00  0.00  0.98  0.00  0.00  0.01  0.26  0.00
  WS02006245WS02006243    1.00   0.01  0.00  0.00  0.96  0.00  0.00  0.03  0.00  0.00
  WS02006247WS02006245    1.00   0.00  0.00  0.00  0.98  0.00  0.00  0.01  0.00  0.00
  WS02006248WS02006247    1.00   0.00  0.00  0.00  0.99  0.00  0.00  0.01  0.26  0.00
  WS02006249WS02006248    1.00   0.00  0.00  0.00  0.92  0.00  0.08  0.00  0.00  0.00
  WS02006251WS02006249    1.00   0.00  0.00  0.00  0.99  0.00  0.00  0.00  0.22  0.00
  WS02006252WS02006251    1.00   0.00  0.06  0.00  0.02  0.00  0.92  0.00  0.00  0.00
  WS02006256WS02006235    1.00   0.00  0.00  0.00  1.00  0.00  0.00  0.00  0.00  0.00
  WSF200WS02003060        1.00   0.00  0.02  0.00  0.04  0.94  0.00  0.00  0.59  0.00
  YS02001580YS02001583    1.00   0.30  0.58  0.00  0.12  0.00  0.00  0.00  0.73  0.00
  YS02001583YS02001586    1.00   0.37  0.48  0.00  0.14  0.00  0.00  0.00  0.73  0.00
  YS02001586YS02001590    1.00   0.20  0.00  0.00  0.34  0.07  0.00  0.40  0.34  0.00
  YS02001590YS02001593    1.00   0.20  0.01  0.00  0.09  0.00  0.70  0.00  0.00  0.00
  YS02001593YS02001596    1.00   0.22  0.00  0.00  0.09  0.01  0.00  0.68  0.02  0.00
  YS02001596YS02001600    1.00   0.22  0.00  0.00  0.14  0.01  0.00  0.63  0.07  0.00
  YS02001600YS02001601    1.00   0.21  0.02  0.00  0.78  0.00  0.00  0.00  0.63  0.00
  YS02001601YS02001602    1.00   0.20  0.02  0.00  0.78  0.00  0.00  0.00  0.00  0.00
  YS02001602YS02001605    1.00   0.22  0.00  0.00  0.78  0.00  0.00  0.00  0.00  0.00
  YS02001605YS02001607    1.00   0.22  0.00  0.00  0.78  0.00  0.00  0.00  0.00  0.00
  YS02001607YS02001610    1.00   0.21  0.01  0.00  0.77  0.00  0.00  0.00  0.02  0.00
  YS02001610YS02001613    1.00   0.21  0.00  0.00  0.79  0.00  0.00  0.00  0.01  0.00
  YS02001613YS02001616    1.00   0.20  0.00  0.00  0.80  0.00  0.00  0.00  0.01  0.00
  YS02001616YS02001619    1.00   0.20  0.00  0.00  0.80  0.00  0.00  0.00  0.00  0.00
  YS02001619YS02001622    1.00   0.20  0.00  0.00  0.80  0.00  0.00  0.00  0.31  0.00
  YS02001622YS02001625    1.00   0.20  0.00  0.00  0.80  0.00  0.00  0.00  0.05  0.00
  YS02001625YS02001629    1.00   0.21  0.06  0.00  0.11  0.00  0.63  0.00  0.00  0.00
  YS02001629YS02163301    1.00   0.26  0.01  0.00  0.74  0.00  0.00  0.00  0.00  0.00
  YS02001633YS02163601    1.00   0.21  0.00  0.00  0.79  0.00  0.00  0.00  0.02  0.00
  YS02001641YS02001644    1.00   0.20  0.01  0.00  0.79  0.00  0.00  0.00  0.00  0.00
  YS02001644YS02001647    1.00   0.20  0.07  0.00  0.74  0.00  0.00  0.00  0.00  0.00
  YS02001647YS02001649    1.00   0.23  0.03  0.00  0.40  0.33  0.00  0.00  0.58  0.00
  YS02001649YS02001757    1.00   0.00  0.23  0.00  0.53  0.23  0.00  0.00  0.17  0.00
  YS02001652YS02001649    1.00   0.23  0.00  0.00  0.74  0.03  0.00  0.00  0.61  0.00
  YS02001655YS02001652    1.00   0.23  0.00  0.00  0.12  0.01  0.00  0.64  0.09  0.00
  YS02001658YS02001655    1.00   0.23  0.00  0.00  0.61  0.16  0.00  0.00  0.73  0.00
  YS02001661YS02001658    1.00   0.23  0.00  0.00  0.38  0.39  0.00  0.00  0.79  0.00
  YS02001664YS02001661    1.00   0.20  0.00  0.00  0.67  0.13  0.00  0.00  0.87  0.00
  YS02001745YS02001748    1.00   0.20  0.00  0.00  0.04  0.01  0.00  0.75  0.06  0.00
  YS02001748YS02001751    1.00   0.20  0.00  0.00  0.65  0.15  0.00  0.00  0.67  0.00
  YS02001751YS02001754    1.00   0.20  0.00  0.00  0.11  0.00  0.00  0.69  0.06  0.00
  YS02001754YS02001757    1.00   0.00  0.21  0.00  0.76  0.03  0.00  0.00  0.70  0.00
  YS02001757CaochengTiaoxuchi    1.00   0.00  0.00  0.00  0.97  0.03  0.00  0.00  0.62  0.00
  YS02001759YS02001757    1.00   0.00  0.20  0.00  0.76  0.04  0.00  0.00  0.48  0.00
  YS02001762YS02001759    1.00   0.20  0.01  0.00  0.79  0.00  0.00  0.00  0.05  0.00
  YS02001765YS02001762    1.00   0.21  0.00  0.00  0.79  0.00  0.00  0.00  0.55  0.00
  YS02001767YS02001765    1.00   0.20  0.00  0.00  0.80  0.00  0.00  0.00  0.01  0.00
  YS02001770YS02001767    1.00   0.20  0.00  0.00  0.80  0.00  0.00  0.00  0.00  0.00
  YS02001774YS02001770    1.00   0.22  0.00  0.00  0.69  0.00  0.08  0.00  0.02  0.00
  YS02001779YS02001774    1.00   0.22  0.59  0.00  0.19  0.00  0.00  0.00  0.63  0.00
  YS02001783YS02001784    1.00   0.27  0.00  0.00  0.73  0.00  0.00  0.00  0.57  0.00
  YS02001784YS02001785    1.00   0.27  0.00  0.00  0.73  0.00  0.00  0.00  0.39  0.00
  YS02001786YS02001788    1.00   0.27  0.00  0.00  0.60  0.13  0.00  0.00  0.00  0.00
  YS02001788YS02001790    1.00   0.28  0.00  0.00  0.13  0.60  0.00  0.00  0.66  0.00
  YS02001790YS02001791    1.00   0.28  0.00  0.00  0.00  0.72  0.00  0.00  0.17  0.00
  YS02001791YS02001793    1.00   0.28  0.00  0.00  0.00  0.72  0.00  0.00  0.00  0.00
  YS02001793JiankangQianchi    1.00   0.00  0.28  0.00  0.70  0.02  0.00  0.00  0.80  0.00
  YS02001882YS02001884    1.00   0.26  0.00  0.00  0.74  0.00  0.00  0.00  0.00  0.00
  YS02001884YS02001887    1.00   0.23  0.02  0.00  0.75  0.00  0.00  0.00  0.00  0.00
  YS02001887YS02001890    1.00   0.20  0.01  0.00  0.76  0.00  0.03  0.00  0.00  0.00
  YS02001890YS02001895    1.00   0.21  0.05  0.00  0.74  0.00  0.00  0.00  0.00  0.00
  YS02001895YS02001898    1.00   0.26  0.00  0.00  0.73  0.00  0.01  0.00  0.00  0.00
  YS02001898YS02001901    1.00   0.26  0.00  0.00  0.73  0.00  0.00  0.00  0.01  0.00
  YS02001901YS02001904    1.00   0.26  0.00  0.00  0.73  0.00  0.00  0.00  0.00  0.00
  YS02001904YS02001907    1.00   0.20  0.06  0.00  0.73  0.00  0.00  0.00  0.00  0.00
  YS02001907YS02006553    1.00   0.20  0.03  0.00  0.76  0.00  0.00  0.00  0.01  0.00
  YS02001910YS02001907    1.00   0.20  0.00  0.00  0.75  0.00  0.00  0.04  0.02  0.00
  YS02001915YS02001910    1.00   0.20  0.00  0.00  0.76  0.04  0.00  0.00  0.01  0.00
  YS02001918YS02001915    1.00   0.20  0.06  0.00  0.74  0.00  0.00  0.00  0.74  0.00
  YS02001920YS02001918    1.00   0.24  0.02  0.00  0.74  0.00  0.00  0.00  0.00  0.00
  YS02001923YS02001920    1.00   0.24  0.00  0.00  0.76  0.00  0.00  0.00  0.79  0.00
  YS02001926YS02001923    1.00   0.20  0.03  0.00  0.04  0.00  0.72  0.00  0.00  0.00
  YS02001929YS02001926    1.00   0.20  0.00  0.00  0.80  0.00  0.00  0.00  0.84  0.00
  YS02006553YS02006556    1.00   0.23  0.00  0.00  0.77  0.00  0.00  0.00  0.02  0.00
  YS02006556YS02006558    1.00   0.20  0.02  0.00  0.78  0.00  0.00  0.00  0.00  0.00
  YS02006558YS02006561    1.00   0.27  0.00  0.00  0.04  0.69  0.00  0.00  0.19  0.00
  YS02006561YS02001783    1.00   0.27  0.00  0.00  0.10  0.63  0.00  0.00  0.71  0.00
  YS02163301YS02001633    1.00   0.20  0.06  0.00  0.74  0.00  0.00  0.00  0.00  0.00
  YS02163601YS02164001    1.00   0.22  0.02  0.00  0.76  0.00  0.00  0.00  0.01  0.00
  YS02164001YS02001641    1.00   0.21  0.03  0.00  0.77  0.00  0.00  0.00  0.00  0.00
  
  
  *************************
  Conduit Surcharge Summary
  *************************
  
  ----------------------------------------------------------------------------
                                                           Hours        Hours 
                         --------- Hours Full --------   Above Full   Capacity
  Conduit                Both Ends  Upstream  Dnstream   Normal Flow   Limited
  ----------------------------------------------------------------------------
  WS02003072WS02003073        0.01      0.01      0.01      0.37         0.01
  WS02004401WS02004402        0.01      0.01      0.01      0.01         0.01
  WS02004402WS02004403        0.01      0.01      0.01      0.02         0.01
  WS02004404WS02004405        0.01      0.01      0.01      5.80         0.01
  WS02004405WS02004406        0.01      0.01      0.01      0.11         0.01
  WS02006109WS02006110        0.17      0.17      1.99      0.21         0.01
  WS02006110WS02006113        0.01      0.01      1.98      0.01         0.01
  WS02006111WS02006112        0.01      0.01      2.11      0.01         0.01
  WS02006112WS02006115        0.01      0.01      0.16      0.01         0.01
  WS02006113WS02006111        0.01      0.01      0.01      0.01         0.01
  WS02006115WS02006116        0.01      0.01      0.01      0.01         0.01
  WS02006116WS02004401        0.01      0.01      0.01      0.02         0.01
  WS02006228WS02006109        1.96      1.98      1.97      2.21         1.96
  WS02006229WS02006228        1.96      1.97      1.96      2.08         1.95
  WS02006230WS02006229        2.00      2.06      2.01      6.02         2.00
  WS02006231WS02006230        0.16      0.16      0.23      5.74         0.01
  WS02006232WS02006231        0.21      0.21      1.98      0.25         0.01
  WS02006234WS02006232        1.93      1.93      1.98      0.24         0.24
  WS02006235WS02006234        0.37      0.37      1.94      5.64         0.01
  WS02006238WS02006235        1.95      1.95      1.98      0.01         0.01
  WS02006239WS02006238        1.96      1.97      1.96      1.97         1.91
  WS02006240WS02006239        1.95      1.96      1.95      1.96         1.88
  WS02006242WS02006240        1.96      1.96      1.98      2.03         0.01
  WS02006243WS02006242        1.95      1.95      1.97      0.01         0.02
  WS02006245WS02006243        1.95      1.95      1.95      1.75         1.76
  WS02006247WS02006245        1.94      1.95      1.94      5.62         1.94
  WS02006248WS02006247        1.94      1.94      1.95      0.01         0.02
  WS02006249WS02006248        1.93      1.94      1.93      5.59         0.01
  WS02006251WS02006249        1.93      1.93      1.93      1.97         1.90
  WS02006252WS02006251        1.98      1.98      2.03      1.99         0.01
  WS02006256WS02006235        5.67      5.68      7.84      0.31         0.01
  YS02001580YS02001583        0.32      0.32      0.38      0.01         0.01
  YS02001583YS02001586        0.33      0.33      0.50      0.01         0.01
  YS02001586YS02001590        0.51      0.51      0.57      0.01         0.01
  YS02001590YS02001593        0.57      0.57      0.59      0.62         0.01
  YS02001593YS02001596        0.58      0.58      0.66      0.01         0.01
  YS02001596YS02001600        0.70      0.70      0.79      0.01         0.01
  YS02001600YS02001601        0.85      0.85      1.18      0.01         0.01
  YS02001601YS02001602        1.04      1.04      1.24      0.81         0.01
  YS02001602YS02001605        0.98      0.98      1.04      2.01         0.01
  YS02001605YS02001607        0.94      0.98      0.94      1.12         0.94
  YS02001607YS02001610        0.53      0.53      0.55      0.01         0.01
  YS02001610YS02001613        0.52      0.52      0.55      0.01         0.01
  YS02001613YS02001616        0.48      0.48      0.52      0.01         0.01
  YS02001616YS02001619        0.47      0.47      0.48      0.01         0.01
  YS02001619YS02001622        0.46      0.47      0.46      0.61         0.45
  YS02001622YS02001625        0.46      0.46      0.63      0.01         0.01
  YS02001625YS02001629        0.41      0.41      0.63      0.01         0.01
  YS02001629YS02163301        0.62      0.62      0.63      0.26         0.22
  YS02001633YS02163601        0.64      0.64      0.67      0.48         0.48
  YS02001641YS02001644        0.55      0.58      0.55      1.31         0.55
  YS02001644YS02001647        0.34      0.34      0.55      0.04         0.01
  YS02001647YS02001649        0.34      0.34      0.45      0.01         0.01
  YS02001649YS02001757        0.45      0.45      0.49      0.24         0.20
  YS02001652YS02001649        0.25      0.25      0.45      0.01         0.01
  YS02001655YS02001652        0.01      0.01      0.22      0.01         0.01
  YS02001751YS02001754        0.01      0.01      0.01      0.01         0.01
  YS02001754YS02001757        0.04      0.04      0.49      0.01         0.01
  YS02001757CaochengTiaoxuchi        0.41      0.49      1.95      0.24         0.12
  YS02001759YS02001757        0.40      0.40      0.49      0.01         0.01
  YS02001762YS02001759        0.35      0.35      0.40      0.01         0.01
  YS02001765YS02001762        0.31      0.31      0.35      0.01         0.01
  YS02001767YS02001765        0.27      0.27      0.31      0.01         0.01
  YS02001770YS02001767        0.26      0.27      0.27      0.37         0.18
  YS02001774YS02001770        0.24      0.24      0.34      0.01         0.01
  YS02001779YS02001774        0.01      0.01      0.34      0.01         0.01
  YS02001783YS02001784        0.33      0.36      0.33      0.48         0.33
  YS02001784YS02001785        0.22      0.33      0.22      0.68         0.22
  YS02001786YS02001788        0.01      0.22      0.01      0.56         0.01
  YS02001790YS02001791        0.01      0.01      0.01      0.32         0.01
  YS02001793JiankangQianchi        0.01      0.01      6.45      0.01         0.01
  YS02001882YS02001884        0.30      0.30      0.31      0.01         0.01
  YS02001884YS02001887        0.33      0.33      0.35      0.01         0.01
  YS02001887YS02001890        0.36      0.36      0.37      0.01         0.01
  YS02001890YS02001895        0.29      0.29      0.39      0.01         0.01
  YS02001895YS02001898        0.28      0.28      0.29      0.01         0.01
  YS02001898YS02001901        0.29      0.29      0.34      0.01         0.01
  YS02001901YS02001904        0.33      0.33      0.34      0.01         0.01
  YS02001904YS02001907        0.33      0.33      0.54      0.01         0.01
  YS02001907YS02006553        0.68      0.68      0.75      0.01         0.01
  YS02001910YS02001907        0.39      0.39      0.53      0.01         0.01
  YS02001915YS02001910        0.30      0.30      0.39      0.01         0.01
  YS02001918YS02001915        0.21      0.21      0.30      0.01         0.01
  YS02001920YS02001918        0.21      0.21      0.23      0.01         0.01
  YS02001923YS02001920        0.15      0.15      0.23      0.01         0.01
  YS02001926YS02001923        0.01      0.01      0.01      0.01         0.01
  YS02001929YS02001926        0.01      0.01      0.01      0.01         0.01
  YS02006553YS02006556        0.46      0.46      0.55      0.01         0.01
  YS02006556YS02006558        0.50      0.50      0.56      0.01         0.01
  YS02006558YS02006561        0.25      0.45      0.25      0.64         0.25
  YS02006561YS02001783        0.17      0.17      0.36      0.01         0.01
  YS02163301YS02001633        0.63      0.63      0.66      0.01         0.01
  YS02163601YS02164001        0.59      0.59      0.67      0.19         0.01
  YS02164001YS02001641        0.58      0.59      0.58      0.70         0.58
  
  
  ***************
  Pumping Summary
  ***************
  
  ---------------------------------------------------------------------------------------------------------
                                                  Min       Avg       Max     Total     Power    % Time Off
                        Percent   Number of      Flow      Flow      Flow    Volume     Usage    Pump Curve
  Pump                 Utilized   Start-Ups       LPS       LPS       LPS  10^6 ltr     Kw-hr    Low   High
  ---------------------------------------------------------------------------------------------------------
  CC-R1                   13.51           1      0.00    683.00    683.00     2.658     49.50    0.0    0.0
  CC-R2                    4.41           2      0.00    683.00    683.00     0.867     16.30    0.0    0.0
  CC-S1                   71.62          28      0.00    200.00    200.00     4.125     25.67    0.0    0.0
  CC-S2                   24.81           1      0.00    200.00    200.00     1.429      8.18    0.0    0.0
  JK-R1                    5.68          49      0.00   1000.00   1000.00     1.635     14.21    0.0    0.0
  JK-R2                    4.22          49      0.00   1000.00   1000.00     1.217      9.39    0.0    0.0
  JK-S                     3.90           4      0.00    300.00    300.00     0.337      5.14    0.0    0.0
  

  Analysis begun on:  Fri Sep  8 22:11:56 2023
  Analysis ended on:  Fri Sep  8 22:12:10 2023
  Total elapsed time: 00:00:14