
  OWA STORM WATER MANAGEMENT MODEL - VERSION v5.2.3 (OWA 2023-06-06)
  ------------------------------------------------------------

  WARNING 04: minimum elevation drop used for Conduit WS02004404WS02004405
  WARNING 03: negative offset ignored for Link YS02001904YS02001907
  
  ****************
  Analysis Options
  ****************
  Flow Units ............... LPS
  Process Models:
    Rainfall/Runoff ........ YES
    RDII ................... NO
    Snowmelt ............... NO
    Groundwater ............ NO
    Flow Routing ........... YES
    Ponding Allowed ........ NO
    Water Quality .......... NO
  Infiltration Method ...... HORTON
  Flow Routing Method ...... DYNWAVE
  Surcharge Method ......... EXTRAN
  Starting Date ............ 08/28/2015 08:00:00
  Ending Date .............. 08/28/2015 16:00:00
  Antecedent Dry Days ...... 8.0
  Report Time Step ......... 00:01:00
  Wet Time Step ............ 00:01:00
  Dry Time Step ............ 00:01:00
  Routing Time Step ........ 30.00 sec
  Variable Time Step ....... YES
  Maximum Trials ........... 8
  Number of Threads ........ 2
  Head Tolerance ........... 0.001500 m
  
  
  **************************        Volume         Depth
  Runoff Quantity Continuity     hectare-m            mm
  **************************     ---------       -------
  Total Precipitation ......         2.805        84.578
  Evaporation Loss .........         0.000         0.000
  Infiltration Loss ........         0.106         3.200
  Surface Runoff ...........         2.667        80.391
  Final Storage ............         0.033         0.998
  Continuity Error (%) .....        -0.012
  
  
  **************************        Volume        Volume
  Flow Routing Continuity        hectare-m      10^6 ltr
  **************************     ---------     ---------
  Dry Weather Inflow .......         0.025         0.251
  Wet Weather Inflow .......         2.666        26.659
  Groundwater Inflow .......         0.000         0.000
  RDII Inflow ..............         0.000         0.000
  External Inflow ..........         0.083         0.834
  External Outflow .........         2.450        24.503
  Flooding Loss ............         0.422         4.221
  Evaporation Loss .........         0.000         0.000
  Exfiltration Loss ........         0.000         0.000
  Initial Stored Volume ....         0.243         2.431
  Final Stored Volume ......         0.182         1.815
  Continuity Error (%) .....        -1.209
  
  
  *************************
  Highest Continuity Errors
  *************************
  Node YS02001884 (5.11%)
  Node YS02001583 (-4.18%)
  Node WS02006256 (-2.27%)
  Node YS02001658 (-2.26%)
  
  
  ***************************
  Time-Step Critical Elements
  ***************************
  Link WS02006252WS02006251 (21.15%)
  Link WS02006238WS02006235 (17.16%)
  Link YS02001791YS02001793 (14.87%)
  Link WS02004404WS02004405 (14.20%)
  Link WS02003066WSF200 (7.38%)
  
  
  ********************************
  Highest Flow Instability Indexes
  ********************************
  Link WS02006113WS02006111 (41)
  Link WS02006238WS02006235 (37)
  Link WS02006252WS02006251 (33)
  Link WS02006256WS02006235 (29)
  Link YS02001602YS02001605 (29)
  
  
  *********************************
  Most Frequent Nonconverging Nodes
  *********************************
  Node CC-1 (35.31%)
  Node CC-2 (35.31%)
  Node JK-1 (35.31%)
  Node JK-2 (35.31%)
  Node WSC (35.31%)
  
  
  *************************
  Routing Time Step Summary
  *************************
  Minimum Time Step           :     0.00 sec
  Average Time Step           :     2.42 sec
  Maximum Time Step           :    30.00 sec
  % of Time in Steady State   :     0.00
  Average Iterations per Step :     4.68
  % of Steps Not Converging   :    35.31
  Time Step Frequencies       :
     30.000 - 13.228 sec      :     0.01 %
     13.228 -  5.833 sec      :     9.01 %
      5.833 -  2.572 sec      :    24.31 %
      2.572 -  1.134 sec      :    35.22 %
      1.134 -  0.500 sec      :    31.45 %
  
  
  ***************************
  Subcatchment Runoff Summary
  ***************************
  
  ------------------------------------------------------------------------------------------------------------------------------
                            Total      Total      Total      Total     Imperv       Perv      Total       Total     Peak  Runoff
                           Precip      Runon       Evap      Infil     Runoff     Runoff     Runoff      Runoff   Runoff   Coeff
  Subcatchment                 mm         mm         mm         mm         mm         mm         mm    10^6 ltr      LPS
  ------------------------------------------------------------------------------------------------------------------------------
  sub60                     84.58       0.00       0.00       1.93      73.22       8.23      81.45        1.07   203.88   0.963
  sub61                     84.58       0.00       0.00       2.80      69.07      11.58      80.65        1.48   281.97   0.954
  sub62                     84.58       0.00       0.00       1.28      76.52       5.48      82.01        2.25   423.60   0.970
  sub63                     84.58       0.00       0.00       5.16      59.08      19.36      78.44        1.78   329.77   0.927
  sub64                     84.58       0.00       0.00       2.61      70.68      10.08      80.76        1.94   359.94   0.955
  sub65                     84.58       0.00       0.00       2.26      72.32       8.74      81.06        2.23   411.17   0.958
  sub66                     84.58       0.00       0.00       6.32      58.97      18.21      77.18        3.60   581.97   0.912
  sub67                     84.58       0.00       0.00       1.23      76.57       5.54      82.11        1.53   291.26   0.971
  sub68                     84.58       0.00       0.00       2.32      71.55       9.52      81.07        2.23   422.85   0.959
  sub69                     84.58       0.00       0.00       2.10      71.77      10.58      82.36        3.05   553.71   0.974
  sub70                     84.58       0.00       0.00       6.84      55.65      21.91      77.56        2.24   349.18   0.917
  sub71                     84.58       0.00       0.00       1.32      76.48       5.45      81.93        2.14   396.57   0.969
  sub72                     84.58       0.00       0.00       1.17      77.24       4.75      81.99        1.13   202.44   0.969
  
  
  ******************
  Node Depth Summary
  ******************
  
  ---------------------------------------------------------------------------------
                                 Average  Maximum  Maximum  Time of Max    Reported
                                   Depth    Depth      HGL   Occurrence   Max Depth
  Node                 Type       Meters   Meters   Meters  days hr:min      Meters
  ---------------------------------------------------------------------------------
  WS02003060           JUNCTION     0.24     0.38     5.32     0  01:53        0.38
  WS02003066           JUNCTION     0.20     0.30     5.85     0  01:52        0.30
  WS02003067           JUNCTION     0.52     0.70     6.02     0  01:52        0.70
  WS02003069           JUNCTION     0.27     0.43     5.02     0  01:50        0.43
  WS02003072           JUNCTION     0.33     0.50     4.87     0  01:50        0.50
  WS02003073           JUNCTION     0.19     0.30     4.36     0  01:54        0.30
  WS02004401           JUNCTION     0.62     0.88     6.88     0  01:49        0.88
  WS02004402           JUNCTION     0.65     0.91     6.87     0  01:50        0.90
  WS02004403           JUNCTION     0.68     0.92     6.85     0  01:44        0.92
  WS02004404           JUNCTION     0.75     1.06     6.91     0  01:50        1.04
  WS02004405           JUNCTION     0.74     0.97     6.82     0  01:50        0.96
  WS02004406           JUNCTION     0.75     0.96     6.79     0  01:50        0.96
  WS02004407           JUNCTION     0.18     0.30     6.61     0  01:47        0.30
  WS02004409           JUNCTION     0.41     0.67     6.44     0  01:51        0.67
  WS02004410           JUNCTION     0.43     0.68     6.40     0  01:51        0.68
  WS02004411           JUNCTION     0.46     0.69     6.37     0  01:51        0.69
  WS02004412           JUNCTION     0.48     0.70     6.34     0  01:52        0.70
  WS02004413           JUNCTION     0.64     0.86     6.33     0  01:52        0.86
  WS02006109           JUNCTION     0.67     1.23     7.85     0  03:11        1.23
  WS02006110           JUNCTION     0.67     1.32     7.90     0  03:11        1.32
  WS02006111           JUNCTION     0.18     0.90     7.60     0  00:00        0.40
  WS02006112           JUNCTION     0.78     2.68     8.56     0  00:00        1.14
  WS02006113           JUNCTION     0.28     1.40     8.29     0  00:00        0.45
  WS02006115           JUNCTION     0.50     1.65     7.79     0  00:00        0.86
  WS02006116           JUNCTION     0.59     1.06     7.10     0  00:00        0.86
  WS02006228           JUNCTION     0.67     1.42     8.07     0  02:32        1.27
  WS02006229           JUNCTION     0.64     1.52     8.21     0  02:32        1.52
  WS02006230           JUNCTION     0.65     2.36     9.10     0  02:32        2.36
  WS02006231           JUNCTION     0.45     1.55     8.67     0  02:32        1.55
  WS02006232           JUNCTION     0.58     1.70     8.74     0  03:10        1.47
  WS02006234           JUNCTION     0.52     1.96     9.12     0  03:10        1.43
  WS02006235           JUNCTION     0.56     2.00     9.16     0  03:10        1.94
  WS02006238           JUNCTION     0.59     2.15     9.29     0  02:37        2.15
  WS02006239           JUNCTION     0.57     2.03     9.24     0  02:37        2.03
  WS02006240           JUNCTION     0.54     2.10     9.39     0  02:37        2.10
  WS02006242           JUNCTION     0.61     1.55     8.82     0  02:30        1.55
  WS02006243           JUNCTION     0.53     1.48     8.90     0  01:24        1.48
  WS02006245           JUNCTION     0.54     1.56     9.05     0  02:37        1.56
  WS02006247           JUNCTION     0.56     1.47     8.97     0  02:37        1.47
  WS02006248           JUNCTION     0.52     1.10     8.69     0  02:26        1.10
  WS02006249           JUNCTION     0.55     1.09     8.69     0  01:29        1.09
  WS02006251           JUNCTION     0.55     1.48     9.15     0  01:29        1.20
  WS02006252           JUNCTION     0.37     1.50     9.74     0  01:20        1.50
  WS02006256           JUNCTION     1.06     2.35     9.28     0  00:05        2.35
  WSF200               JUNCTION     0.17     0.29     5.53     0  01:52        0.29
  YS02001580           JUNCTION     0.25     1.05     9.59     0  01:16        0.77
  YS02001583           JUNCTION     0.28     1.14     9.64     0  01:16        0.82
  YS02001586           JUNCTION     0.42     1.13     9.30     0  01:16        1.13
  YS02001590           JUNCTION     0.56     1.40     9.26     0  02:37        1.40
  YS02001593           JUNCTION     0.49     1.36     9.22     0  02:37        1.36
  YS02001596           JUNCTION     0.65     1.68     9.10     0  02:03        1.68
  YS02001600           JUNCTION     0.75     1.87     9.00     0  01:16        1.87
  YS02001601           JUNCTION     0.94     2.06     8.90     0  01:16        2.06
  YS02001602           JUNCTION     0.83     1.87     8.77     0  01:16        1.87
  YS02001605           JUNCTION     0.78     1.78     8.68     0  01:16        1.78
  YS02001607           JUNCTION     0.73     1.68     8.53     0  01:16        1.65
  YS02001610           JUNCTION     0.77     1.68     8.48     0  01:16        1.68
  YS02001613           JUNCTION     0.73     1.70     8.54     0  01:16        1.70
  YS02001616           JUNCTION     0.66     1.61     8.52     0  01:16        1.61
  YS02001619           JUNCTION     0.64     1.61     8.54     0  01:16        1.61
  YS02001622           JUNCTION     0.63     1.62     8.52     0  01:16        1.62
  YS02001625           JUNCTION     0.87     1.78     8.38     0  01:25        1.78
  YS02001629           JUNCTION     0.79     1.85     8.40     0  01:16        1.85
  YS02001633           JUNCTION     0.85     2.08     8.53     0  02:02        2.08
  YS02001641           JUNCTION     0.79     2.10     8.54     0  01:50        2.10
  YS02001644           JUNCTION     0.78     1.92     8.35     0  01:48        1.92
  YS02001647           JUNCTION     0.56     1.90     8.51     0  01:48        1.90
  YS02001649           JUNCTION     0.62     2.05     8.44     0  01:48        2.05
  YS02001652           JUNCTION     0.49     2.16     8.76     0  02:21        2.16
  YS02001655           JUNCTION     0.38     2.20     9.05     0  02:13        2.20
  YS02001658           JUNCTION     0.27     2.30     9.44     0  02:13        1.75
  YS02001661           JUNCTION     0.21     0.68     8.09     0  02:10        0.66
  YS02001664           JUNCTION     0.08     0.22     8.14     0  01:31        0.22
  YS02001745           JUNCTION     0.11     0.46     7.98     0  02:06        0.45
  YS02001748           JUNCTION     0.25     0.89     7.97     0  02:27        0.88
  YS02001751           JUNCTION     0.32     1.32     8.20     0  02:02        1.12
  YS02001754           JUNCTION     0.44     1.48     8.09     0  02:02        1.39
  YS02001757           JUNCTION     0.64     1.91     8.17     0  02:13        1.83
  YS02001759           JUNCTION     0.58     1.84     8.21     0  01:54        1.84
  YS02001762           JUNCTION     0.56     2.05     8.45     0  01:54        2.05
  YS02001765           JUNCTION     0.54     2.10     8.55     0  01:54        2.10
  YS02001767           JUNCTION     0.53     2.03     8.52     0  01:54        2.03
  YS02001770           JUNCTION     0.53     1.95     8.45     0  01:54        1.95
  YS02001774           JUNCTION     0.60     2.05     8.47     0  01:54        2.05
  YS02001779           JUNCTION     0.42     1.68     8.37     0  01:54        1.68
  YS02001783           JUNCTION     0.41     1.21     7.35     0  01:32        1.20
  YS02001784           JUNCTION     0.41     1.10     7.17     0  01:30        1.09
  YS02001786           JUNCTION     0.34     0.87     6.90     0  01:25        0.86
  YS02001788           JUNCTION     0.25     0.62     6.59     0  01:31        0.62
  YS02001790           JUNCTION     0.29     0.72     6.36     0  01:33        0.72
  YS02001791           JUNCTION     0.18     0.43     5.90     0  01:34        0.43
  YS02001793           JUNCTION     0.09     0.29     5.12     0  01:41        0.27
  YS02001882           JUNCTION     0.50     1.58     8.30     0  01:37        1.56
  YS02001884           JUNCTION     0.59     1.68     8.30     0  01:25        1.66
  YS02001887           JUNCTION     0.66     1.76     8.30     0  01:25        1.74
  YS02001890           JUNCTION     0.69     1.78     8.29     0  01:25        1.77
  YS02001895           JUNCTION     0.47     1.54     8.29     0  01:37        1.53
  YS02001898           JUNCTION     0.48     1.54     8.28     0  01:37        1.53
  YS02001901           JUNCTION     0.59     1.66     8.27     0  01:27        1.66
  YS02001904           JUNCTION     0.57     1.63     8.26     0  01:25        1.63
  YS02001907           JUNCTION     0.88     1.96     8.25     0  01:25        1.96
  YS02001910           JUNCTION     0.69     1.79     8.30     0  01:26        1.79
  YS02001915           JUNCTION     0.50     1.61     8.33     0  01:26        1.59
  YS02001918           JUNCTION     0.32     1.28     8.35     0  01:26        1.28
  YS02001920           JUNCTION     0.39     1.37     8.37     0  01:26        1.35
  YS02001923           JUNCTION     0.24     1.12     8.38     0  01:26        1.12
  YS02001926           JUNCTION     0.25     0.94     8.39     0  01:26        0.92
  YS02001929           JUNCTION     0.14     0.70     8.39     0  01:26        0.68
  YS02006553           JUNCTION     0.88     1.96     8.24     0  01:37        1.96
  YS02006556           JUNCTION     0.85     1.90     8.21     0  01:31        1.90
  YS02006558           JUNCTION     0.89     1.94     8.21     0  01:29        1.94
  YS02006561           JUNCTION     0.26     0.87     7.53     0  01:24        0.85
  YS02163301           JUNCTION     0.80     2.03     8.55     0  02:37        2.03
  YS02163601           JUNCTION     0.87     2.08     8.48     0  01:50        2.08
  YS02164001           JUNCTION     0.79     2.10     8.56     0  01:50        2.10
  CC-1                 OUTFALL      0.00     0.00     0.00     0  00:00        0.00
  CC-2                 OUTFALL      0.00     0.00     0.00     0  00:00        0.00
  JK-1                 OUTFALL      0.00     0.00     0.00     0  00:00        0.00
  JK-2                 OUTFALL      0.00     0.00     0.00     0  00:00        0.00
  WSC                  OUTFALL      0.19     0.30     0.97     0  01:54        0.30
  CC-storage           STORAGE      1.00     1.86     7.36     0  02:52        1.86
  JK-storage           STORAGE      1.82     4.23     5.03     0  02:16        4.15
  
  
  *******************
  Node Inflow Summary
  *******************
  
  -------------------------------------------------------------------------------------------------
                                  Maximum  Maximum                  Lateral       Total        Flow
                                  Lateral    Total  Time of Max      Inflow      Inflow     Balance
                                   Inflow   Inflow   Occurrence      Volume      Volume       Error
  Node                 Type           LPS      LPS  days hr:min    10^6 ltr    10^6 ltr     Percent
  -------------------------------------------------------------------------------------------------
  WS02003060           JUNCTION     16.53   557.02     0  01:53       0.476         5.9       0.040
  WS02003066           JUNCTION      0.00   540.19     0  01:52           0        5.43       0.026
  WS02003067           JUNCTION      0.00   540.14     0  01:52           0        5.43       0.077
  WS02003069           JUNCTION      0.32   557.00     0  01:53     0.00922        5.91       0.067
  WS02003072           JUNCTION      0.00   556.73     0  01:50           0        5.91       0.119
  WS02003073           JUNCTION      1.82   558.41     0  01:51      0.0524        5.95       0.096
  WS02004401           JUNCTION      0.00  1677.78     0  00:00           0        5.54       0.207
  WS02004402           JUNCTION      0.00  1171.33     0  00:01           0        5.52       0.203
  WS02004403           JUNCTION      0.00   884.75     0  00:01           0        5.51       0.196
  WS02004404           JUNCTION      0.16   832.59     0  00:01     0.00467         5.5       0.085
  WS02004405           JUNCTION      0.04   776.49     0  00:01      0.0011         5.5       0.185
  WS02004406           JUNCTION      0.00   711.76     0  00:02           0        5.49       0.395
  WS02004407           JUNCTION      0.00   541.83     0  01:50           0        5.47       0.020
  WS02004409           JUNCTION      0.00   541.19     0  01:47           0        5.47       0.050
  WS02004410           JUNCTION      0.00   540.81     0  01:51           0        5.46       0.082
  WS02004411           JUNCTION      0.00   540.47     0  01:51           0        5.46       0.106
  WS02004412           JUNCTION      0.00   540.42     0  01:52           0        5.45       0.137
  WS02004413           JUNCTION      0.00   540.39     0  01:52           0        5.45       0.248
  WS02006109           JUNCTION      1.23  1308.01     0  00:00      0.0354        5.46       0.130
  WS02006110           JUNCTION      0.00   591.45     0  02:32           0        5.43      -0.663
  WS02006111           JUNCTION      0.00  1176.04     0  00:00           0        5.46      -0.703
  WS02006112           JUNCTION      0.00  2307.30     0  00:00           0         5.5      -0.013
  WS02006113           JUNCTION      0.00   578.23     0  02:32           0        5.42      -0.910
  WS02006115           JUNCTION      0.00   899.27     0  00:00           0        5.48      -0.588
  WS02006116           JUNCTION      0.00  1098.16     0  00:01           0        5.51      -0.470
  WS02006228           JUNCTION      0.00   575.08     0  02:32           0        5.41       0.066
  WS02006229           JUNCTION      0.00   572.12     0  02:32           0        5.39       0.175
  WS02006230           JUNCTION     10.28   629.71     0  02:37       0.296        5.38      -0.014
  WS02006231           JUNCTION      0.00   611.18     0  02:37           0        5.07       0.017
  WS02006232           JUNCTION      0.00   604.87     0  02:37           0        5.08       0.131
  WS02006234           JUNCTION      0.00   590.12     0  02:37           0        5.06      -0.259
  WS02006235           JUNCTION      0.00   566.03     0  02:36           0        5.16       0.260
  WS02006238           JUNCTION      0.00   433.92     0  04:06           0        4.16      -0.135
  WS02006239           JUNCTION      0.00   430.49     0  04:06           0        4.09      -0.139
  WS02006240           JUNCTION      0.00   428.33     0  04:11           0        4.06      -0.008
  WS02006242           JUNCTION      0.00   427.69     0  04:10           0        4.05       0.048
  WS02006243           JUNCTION      0.00   428.14     0  04:10           0        4.04      -0.143
  WS02006245           JUNCTION      0.00   428.13     0  04:10           0        4.06       0.289
  WS02006247           JUNCTION      0.00   429.21     0  04:10           0        4.06      -0.014
  WS02006248           JUNCTION      0.00   428.00     0  04:10           0        4.06       0.006
  WS02006249           JUNCTION      0.00   450.75     0  00:10           0        4.32       0.315
  WS02006251           JUNCTION      0.08   416.33     0  02:37     0.00222        4.32       0.049
  WS02006252           JUNCTION      0.00   400.00     0  00:10           0        4.31      -0.326
  WS02006256           JUNCTION      0.00   300.00     0  00:05           0        1.49      -2.220
  WSF200               JUNCTION      0.00   540.24     0  01:52           0        5.43       0.008
  YS02001580           JUNCTION      0.00    76.37     0  01:16           0     0.00445       2.746
  YS02001583           JUNCTION      0.00   122.08     0  01:16           0      0.0161      -4.011
  YS02001586           JUNCTION    349.18   349.30     0  02:05        2.24        2.25       0.060
  YS02001590           JUNCTION      0.00   318.48     0  02:03           0        2.18      -0.032
  YS02001593           JUNCTION      0.00   318.09     0  01:37           0        2.18       0.010
  YS02001596           JUNCTION      0.00   318.20     0  01:37           0        2.18      -0.013
  YS02001600           JUNCTION      0.00   318.18     0  02:02           0        2.18       0.007
  YS02001601           JUNCTION    553.71   871.45     0  01:31        3.05        5.23       0.008
  YS02001602           JUNCTION      0.00   538.62     0  01:15           0         3.3       0.014
  YS02001605           JUNCTION      0.00   538.88     0  01:15           0        2.99       0.018
  YS02001607           JUNCTION      0.00   539.11     0  01:15           0        2.99       0.057
  YS02001610           JUNCTION      0.00   548.68     0  01:16           0        2.99       0.083
  YS02001613           JUNCTION      0.00   554.48     0  01:16           0        2.58       0.064
  YS02001616           JUNCTION      0.00   561.32     0  01:16           0        2.59       0.020
  YS02001619           JUNCTION    581.97   910.38     0  01:24         3.6        6.18      -0.003
  YS02001622           JUNCTION      0.00   909.55     0  01:24           0        6.18      -0.001
  YS02001625           JUNCTION      0.00   912.92     0  01:16           0        6.18       0.195
  YS02001629           JUNCTION      0.00   912.79     0  01:16           0        5.54      -0.008
  YS02001633           JUNCTION    411.37  1292.27     0  01:24        2.24        7.79       0.044
  YS02001641           JUNCTION      0.00  1292.96     0  01:24           0        7.79       0.040
  YS02001644           JUNCTION    359.98  1632.39     0  01:24        1.94        9.72       0.032
  YS02001647           JUNCTION      0.00  1632.12     0  01:24           0         9.7      -0.010
  YS02001649           JUNCTION      0.00  1961.84     0  01:23           0        11.5       0.016
  YS02001652           JUNCTION      0.00   424.95     0  01:27           0        1.83       0.130
  YS02001655           JUNCTION      0.15   478.15     0  01:45     0.00443        1.82      -0.340
  YS02001658           JUNCTION      0.00   743.61     0  01:55           0        1.91      -2.206
  YS02001661           JUNCTION      0.00   479.70     0  01:55           0        1.92       0.184
  YS02001664           JUNCTION    329.77   329.77     0  01:31        1.78        1.78      -0.013
  YS02001745           JUNCTION    203.89   206.30     0  02:36        1.07         1.1       0.236
  YS02001748           JUNCTION      0.04   353.38     0  02:00      0.0013         1.1      -0.261
  YS02001751           JUNCTION      0.01   339.38     0  02:02    0.000317        1.07      -0.274
  YS02001754           JUNCTION      0.26   289.41     0  01:30     0.00749        1.08      -0.189
  YS02001757           JUNCTION      0.00  2797.00     0  01:22           0        16.4       0.025
  YS02001759           JUNCTION    282.01   725.02     0  01:31        1.48        3.75      -0.034
  YS02001762           JUNCTION      0.00   448.56     0  01:54           0        2.27      -0.007
  YS02001765           JUNCTION      0.00   442.65     0  01:27           0        2.27      -0.005
  YS02001767           JUNCTION      0.54   473.44     0  01:27      0.0154        2.27       0.004
  YS02001770           JUNCTION    423.76   452.46     0  01:26        2.25        2.31      -0.058
  YS02001774           JUNCTION      0.00    92.08     0  01:25           0      0.0883       0.818
  YS02001779           JUNCTION      0.01    74.99     0  01:26    0.000144        0.03      -2.720
  YS02001783           JUNCTION      0.00  1142.35     0  01:28           0        6.96       0.006
  YS02001784           JUNCTION      1.06  1142.98     0  01:31      0.0305        6.99       0.008
  YS02001786           JUNCTION      0.06  1142.67     0  01:31     0.00162        6.99       0.010
  YS02001788           JUNCTION      0.07  1142.78     0  01:31     0.00204        6.99       0.005
  YS02001790           JUNCTION      0.15  1155.97     0  01:34     0.00446           7       0.022
  YS02001791           JUNCTION      0.00  1272.14     0  01:32           0           7      -0.031
  YS02001793           JUNCTION      0.00  1224.82     0  01:41           0           7       0.005
  YS02001882           JUNCTION      0.00    48.55     0  01:16           0      0.0145       5.700
  YS02001884           JUNCTION      0.00    98.88     0  01:12           0      0.0505       5.384
  YS02001887           JUNCTION    291.71   292.78     0  01:29        1.54        1.57       0.272
  YS02001890           JUNCTION      0.00   292.57     0  01:29           0        1.53       0.337
  YS02001895           JUNCTION      0.00   293.99     0  01:24           0        1.53       0.185
  YS02001898           JUNCTION      0.00   295.49     0  01:24           0        1.52      -0.022
  YS02001901           JUNCTION      0.00   297.62     0  01:24           0        1.53       0.235
  YS02001904           JUNCTION      0.00   298.13     0  01:24           0        1.54       0.187
  YS02001907           JUNCTION      0.00   953.90     0  01:27           0        4.89       0.366
  YS02001910           JUNCTION      0.00   664.86     0  01:27           0        3.35       0.218
  YS02001915           JUNCTION    396.59   664.60     0  01:27        2.14        3.35       0.051
  YS02001918           JUNCTION      0.00   278.96     0  01:27           0        1.21       0.020
  YS02001920           JUNCTION      2.87   278.99     0  01:27      0.0827        1.21       0.087
  YS02001923           JUNCTION      0.04   270.15     0  01:27     0.00109        1.13      -0.009
  YS02001926           JUNCTION      0.05   234.44     0  01:26      0.0015        1.13       0.037
  YS02001929           JUNCTION    202.44   202.44     0  01:32        1.13        1.13      -0.008
  YS02006553           JUNCTION      0.00   778.72     0  01:47           0        4.78       0.252
  YS02006556           JUNCTION      0.00   779.23     0  01:46           0         4.8       0.168
  YS02006558           JUNCTION    423.73  1142.66     0  01:31        2.26        7.01       0.049
  YS02006561           JUNCTION      0.00  1141.78     0  01:31           0        6.96       0.002
  YS02163301           JUNCTION      0.00   910.57     0  01:23           0        5.55       0.030
  YS02163601           JUNCTION      0.11  1292.30     0  01:24     0.00317        7.78       0.065
  YS02164001           JUNCTION      0.00  1292.35     0  01:24           0        7.78       0.034
  CC-1                 OUTFALL       0.00   683.00     0  00:05           0        6.19       0.000
  CC-2                 OUTFALL       0.00   683.00     0  00:15           0        6.73       0.000
  JK-1                 OUTFALL       0.00  1000.00     0  00:05           0        2.92       0.000
  JK-2                 OUTFALL       0.00  1000.00     0  01:15           0        2.71       0.000
  WSC                  OUTFALL       0.00   558.26     0  01:54           0        5.95       0.000
  CC-storage           STORAGE       0.00  2680.66     0  01:31           0        18.6      -0.175
  JK-storage           STORAGE       0.00  1240.72     0  01:34           0        7.15      -0.234
  
  
  **********************
  Node Surcharge Summary
  **********************
  
  Surcharging occurs when water rises above the top of the highest conduit.
  ---------------------------------------------------------------------
                                               Max. Height   Min. Depth
                                   Hours       Above Crown    Below Rim
  Node                 Type      Surcharged         Meters       Meters
  ---------------------------------------------------------------------
  WS02004404           JUNCTION        0.04          0.062        2.718
  WS02006109           JUNCTION        2.56          0.413        1.407
  WS02006110           JUNCTION        0.85          0.405        1.445
  WS02006111           JUNCTION        0.01          0.087        1.783
  WS02006112           JUNCTION        1.06          1.680        0.000
  WS02006113           JUNCTION        0.01          0.600        1.330
  WS02006115           JUNCTION        0.01          0.642        1.608
  WS02006116           JUNCTION        0.01          0.000        2.290
  WS02006228           JUNCTION        2.54          0.587        1.613
  WS02006229           JUNCTION        2.55          0.717        1.733
  WS02006230           JUNCTION        0.87          1.277        0.293
  WS02006231           JUNCTION        1.01          0.841        0.689
  WS02006232           JUNCTION        2.61          1.001        0.479
  WS02006234           JUNCTION        1.53          1.240        0.000
  WS02006235           JUNCTION        2.50          1.290        0.000
  WS02006238           JUNCTION        2.56          1.430        0.000
  WS02006239           JUNCTION        2.53          1.290        0.000
  WS02006240           JUNCTION        2.55          1.390        0.000
  WS02006242           JUNCTION        2.58          0.820        0.000
  WS02006243           JUNCTION        2.50          0.770        0.000
  WS02006245           JUNCTION        2.48          0.850        0.000
  WS02006247           JUNCTION        2.48          0.760        0.000
  WS02006248           JUNCTION        2.46          0.380        0.000
  WS02006249           JUNCTION        2.46          0.390        0.000
  WS02006251           JUNCTION        1.09          0.449        0.731
  WS02006252           JUNCTION        2.78          1.100        0.000
  WS02006256           JUNCTION        7.26          2.050        0.000
  YS02001580           JUNCTION        1.41          0.450        0.000
  YS02001583           JUNCTION        1.43          0.500        0.000
  YS02001586           JUNCTION        1.78          0.510        0.000
  YS02001590           JUNCTION        1.84          0.750        0.000
  YS02001593           JUNCTION        1.84          0.737        0.103
  YS02001596           JUNCTION        1.92          0.953        0.117
  YS02001600           JUNCTION        2.00          1.190        0.000
  YS02001601           JUNCTION        2.18          1.440        0.000
  YS02001602           JUNCTION        2.12          1.270        0.000
  YS02001605           JUNCTION        2.10          1.180        0.000
  YS02001607           JUNCTION        1.83          0.680        0.000
  YS02001610           JUNCTION        1.84          0.680        0.000
  YS02001613           JUNCTION        1.83          0.700        0.000
  YS02001616           JUNCTION        1.79          0.610        0.000
  YS02001619           JUNCTION        1.78          0.610        0.000
  YS02001622           JUNCTION        1.79          0.620        0.000
  YS02001625           JUNCTION        1.91          0.780        0.000
  YS02001629           JUNCTION        1.75          0.470        0.000
  YS02001633           JUNCTION        1.95          1.060        0.000
  YS02001641           JUNCTION        1.92          1.100        0.000
  YS02001644           JUNCTION        1.89          0.920        0.000
  YS02001647           JUNCTION        1.65          0.900        0.000
  YS02001649           JUNCTION        1.77          1.050        0.000
  YS02001652           JUNCTION        1.58          1.130        0.000
  YS02001655           JUNCTION        0.85          1.200        0.000
  YS02001658           JUNCTION        0.07          1.300        0.000
  YS02001751           JUNCTION        0.23          0.318        0.882
  YS02001754           JUNCTION        1.42          0.428        0.722
  YS02001757           JUNCTION        1.83          0.908        0.302
  YS02001759           JUNCTION        1.73          0.843        0.367
  YS02001762           JUNCTION        1.70          1.051        0.099
  YS02001765           JUNCTION        1.65          1.100        0.000
  YS02001767           JUNCTION        1.62          1.030        0.000
  YS02001770           JUNCTION        1.58          0.920        0.000
  YS02001774           JUNCTION        1.70          1.050        0.000
  YS02001779           JUNCTION        1.43          0.680        0.000
  YS02001783           JUNCTION        1.25          0.407        1.193
  YS02001784           JUNCTION        1.20          0.298        1.192
  YS02001786           JUNCTION        0.84          0.069        1.361
  YS02001882           JUNCTION        1.02          0.583        0.247
  YS02001884           JUNCTION        1.09          0.623        0.247
  YS02001887           JUNCTION        1.22          0.708        0.242
  YS02001890           JUNCTION        1.25          0.733        0.027
  YS02001895           JUNCTION        0.99          0.539        0.211
  YS02001898           JUNCTION        0.97          0.512        0.228
  YS02001901           JUNCTION        1.19          0.660        0.210
  YS02001904           JUNCTION        1.16          0.631        0.219
  YS02001907           JUNCTION        1.76          0.950        0.000
  YS02001910           JUNCTION        1.30          0.792        0.308
  YS02001915           JUNCTION        1.03          0.610        0.390
  YS02001918           JUNCTION        0.81          0.284        0.526
  YS02001920           JUNCTION        0.84          0.365        0.775
  YS02006553           JUNCTION        1.79          0.958        0.232
  YS02006556           JUNCTION        1.50          0.862        0.488
  YS02006558           JUNCTION        1.47          0.838        0.562
  YS02006561           JUNCTION        0.73          0.067        1.083
  YS02163301           JUNCTION        1.93          1.030        0.000
  YS02163601           JUNCTION        1.97          1.080        0.000
  YS02164001           JUNCTION        1.91          1.100        0.000
  
  
  *********************
  Node Flooding Summary
  *********************
  
  Flooding refers to all water that overflows a node, whether it ponds or not.
  --------------------------------------------------------------------------
                                                             Total   Maximum
                                 Maximum   Time of Max       Flood    Ponded
                        Hours       Rate    Occurrence      Volume     Depth
  Node                 Flooded       LPS   days hr:min    10^6 ltr    Meters
  --------------------------------------------------------------------------
  WS02006112              0.01   1547.89      0  00:00       0.047     0.000
  WS02006234              0.01     48.64      0  03:10       0.000     0.000
  WS02006235              0.01     12.22      0  03:10       0.000     0.000
  WS02006238              0.01      1.39      0  02:37       0.000     0.000
  WS02006239              0.01      1.45      0  02:37       0.000     0.000
  WS02006240              0.01      3.15      0  02:37       0.000     0.000
  WS02006242              0.01     15.05      0  03:10       0.000     0.000
  WS02006243              0.01     72.34      0  01:29       0.000     0.000
  WS02006245              0.01      5.14      0  02:37       0.000     0.000
  WS02006247              0.01      4.78      0  02:37       0.000     0.000
  WS02006248              0.01     26.68      0  02:37       0.000     0.000
  WS02006249              1.04    116.55      0  01:29       0.252     0.000
  WS02006252              0.01      2.70      0  02:37       0.000     0.000
  WS02006256              1.38    290.39      0  03:50       0.499     0.000
  YS02001580              0.01     22.07      0  01:16       0.000     0.000
  YS02001583              0.01     93.25      0  01:16       0.000     0.000
  YS02001586              0.82     61.71      0  01:16       0.060     0.000
  YS02001590              0.01      0.36      0  02:37       0.000     0.000
  YS02001600              0.01      0.67      0  01:16       0.000     0.000
  YS02001601              1.73    473.63      0  01:31       1.925     0.000
  YS02001602              1.56     62.10      0  01:54       0.315     0.000
  YS02001605              0.01      4.55      0  02:37       0.000     0.000
  YS02001607              0.01     32.09      0  01:16       0.000     0.000
  YS02001610              1.29    127.45      0  02:05       0.403     0.000
  YS02001613              0.01      6.85      0  01:16       0.000     0.000
  YS02001616              0.01     41.38      0  01:16       0.000     0.000
  YS02001619              0.01     34.03      0  01:16       0.000     0.000
  YS02001622              0.01     24.48      0  01:16       0.000     0.000
  YS02001625              1.28    304.19      0  02:08       0.623     0.000
  YS02001629              0.04     77.69      0  01:16       0.001     0.000
  YS02001633              0.01      2.50      0  02:37       0.000     0.000
  YS02001641              0.01      8.41      0  01:50       0.000     0.000
  YS02001644              0.01     24.23      0  02:21       0.000     0.000
  YS02001647              0.01     13.24      0  01:48       0.000     0.000
  YS02001649              0.01     39.51      0  01:48       0.000     0.000
  YS02001652              0.01     54.91      0  02:56       0.000     0.000
  YS02001655              0.01    213.62      0  02:53       0.000     0.000
  YS02001658              0.01    249.54      0  02:13       0.000     0.000
  YS02001765              0.01      1.66      0  01:54       0.000     0.000
  YS02001767              0.01      1.34      0  01:54       0.000     0.000
  YS02001770              0.01      3.12      0  01:54       0.000     0.000
  YS02001774              0.01      1.47      0  02:37       0.000     0.000
  YS02001779              0.01      8.87      0  01:54       0.000     0.000
  YS02001907              0.35    229.54      0  01:27       0.114     0.000
  YS02163301              0.01      3.42      0  02:37       0.000     0.000
  YS02163601              0.01      6.15      0  01:50       0.000     0.000
  YS02164001              0.01     13.48      0  01:50       0.000     0.000
  
  
  **********************
  Storage Volume Summary
  **********************
  
  ------------------------------------------------------------------------------------------------
                         Average    Avg   Evap  Exfil     Maximum    Max    Time of Max    Maximum
                          Volume   Pcnt   Pcnt   Pcnt      Volume   Pcnt     Occurrence    Outflow
  Storage Unit           1000 m³   Full   Loss   Loss     1000 m³   Full    days hr:min        LPS
  ------------------------------------------------------------------------------------------------
  CC-storage               2.799   43.7    0.0    0.0       5.179   80.8       0  02:52    1766.00
  JK-storage               0.091   31.4    0.0    0.0       0.212   72.9       0  02:16    2300.00
  
  
  ***********************
  Outfall Loading Summary
  ***********************
  
  -----------------------------------------------------------
                         Flow       Avg       Max       Total
                         Freq      Flow      Flow      Volume
  Outfall Node           Pcnt       LPS       LPS    10^6 ltr
  -----------------------------------------------------------
  CC-1                  45.81    683.00    683.00       6.192
  CC-2                  56.37    683.00    683.00       6.730
  JK-1                  13.98   1000.00   1000.00       2.922
  JK-2                  17.63   1000.00   1000.00       2.713
  WSC                   99.99    274.47    558.26       5.946
  -----------------------------------------------------------
  System                46.76   3640.47   3924.20      24.503
  
  
  ********************
  Link Flow Summary
  ********************
  
  -----------------------------------------------------------------------------
                                 Maximum  Time of Max   Maximum    Max/    Max/
                                  |Flow|   Occurrence   |Veloc|    Full    Full
  Link                 Type          LPS  days hr:min     m/sec    Flow   Depth
  -----------------------------------------------------------------------------
  1                    CONDUIT    558.26     0  01:54      2.83    0.19    0.30
  WS02003060WS02003069 CONDUIT    556.68     0  01:53      1.64    0.22    0.34
  WS02003066WSF200     CONDUIT    540.24     0  01:52      2.86    0.09    0.22
  WS02003067WS02003066 CONDUIT    540.19     0  01:52      1.21    0.17    0.42
  WS02003069WS02003072 CONDUIT    556.73     0  01:50      1.37    0.27    0.39
  WS02003072WS02003073 CONDUIT    556.59     0  01:51      1.44    1.20    0.37
  WS02004401WS02004402 CONDUIT   1171.33     0  00:01      2.51    1.41    0.89
  WS02004402WS02004403 CONDUIT    884.75     0  00:01      2.16    1.27    0.91
  WS02004403WS02004404 CONDUIT    832.43     0  00:01      1.96    0.60    0.96
  WS02004404WS02004405 CONDUIT    776.45     0  00:01      2.26    7.61    0.98
  WS02004405WS02004406 CONDUIT    711.76     0  00:02      2.15    1.40    0.96
  WS02004406WS02004407 CONDUIT    541.83     0  01:50      1.04    0.24    0.63
  WS02004407WS02004409 CONDUIT    541.19     0  01:47      1.95    0.19    0.48
  WS02004409WS02004410 CONDUIT    540.81     0  01:51      1.31    0.70    0.68
  WS02004410WS02004411 CONDUIT    540.47     0  01:51      1.19    0.74    0.69
  WS02004411WS02004412 CONDUIT    540.42     0  01:52      1.08    0.77    0.70
  WS02004412WS02004413 CONDUIT    540.39     0  01:52      1.10    0.36    0.78
  WS02004413WS02003067 CONDUIT    540.14     0  01:52      1.11    0.23    0.59
  WS02006109WS02006110 CONDUIT   1306.78     0  00:00      3.14    2.51    1.00
  WS02006110WS02006113 CONDUIT    578.23     0  02:32      1.39    0.53    1.00
  WS02006111WS02006112 CONDUIT   2307.30     0  00:00      9.18    1.10    0.91
  WS02006112WS02006115 CONDUIT    899.27     0  00:00      1.16    0.53    1.00
  WS02006113WS02006111 CONDUIT   1176.04     0  00:00      2.48    1.41    1.00
  WS02006115WS02006116 CONDUIT   1098.16     0  00:01      1.72    1.41    1.00
  WS02006116WS02004401 CONDUIT   1677.78     0  00:00      2.92    2.31    0.87
  WS02006228WS02006109 CONDUIT    582.76     0  02:32      1.40    2.55    1.00
  WS02006229WS02006228 CONDUIT    575.08     0  02:32      1.24    1.90    1.00
  WS02006230WS02006229 CONDUIT    572.12     0  02:32      1.49   12.73    1.00
  WS02006231WS02006230 CONDUIT    619.43     0  02:37      1.62    9.40    1.00
  WS02006232WS02006231 CONDUIT    611.18     0  02:37      1.59    1.28    1.00
  WS02006234WS02006232 CONDUIT    604.87     0  02:37      1.57    1.22    1.00
  WS02006235WS02006234 CONDUIT    590.12     0  02:37      1.53    6.23    1.00
  WS02006238WS02006235 CONDUIT    433.40     0  04:06      1.45    0.97    1.00
  WS02006239WS02006238 CONDUIT    433.92     0  04:06      1.13    1.39    1.00
  WS02006240WS02006239 CONDUIT    430.49     0  04:06      1.27    1.35    1.00
  WS02006242WS02006240 CONDUIT    428.33     0  04:11      1.15    1.70    1.00
  WS02006243WS02006242 CONDUIT    427.69     0  04:10      1.40    0.91    1.00
  WS02006245WS02006243 CONDUIT    428.14     0  04:10      1.43    1.27    1.00
  WS02006247WS02006245 CONDUIT    428.13     0  04:10      1.40    3.39    1.00
  WS02006248WS02006247 CONDUIT    429.21     0  04:10      1.45    0.93    1.00
  WS02006249WS02006248 CONDUIT    428.00     0  04:10      1.38    2.34    1.00
  WS02006251WS02006249 CONDUIT    450.75     0  00:10      2.11    1.30    1.00
  WS02006252WS02006251 CONDUIT    416.26     0  02:37     21.12    1.53    1.00
  WS02006256WS02006235 CONDUIT    288.77     0  00:05      4.22    3.06    1.00
  WSF200WS02003060     CONDUIT    540.49     0  01:53      2.06    0.12    0.28
  YS02001580YS02001583 CONDUIT     76.37     0  01:16      0.56    0.30    1.00
  YS02001583YS02001586 CONDUIT    122.08     0  01:16      0.53    0.18    1.00
  YS02001586YS02001590 CONDUIT    318.48     0  02:03      1.26    0.56    1.00
  YS02001590YS02001593 CONDUIT    318.09     0  01:37      1.13    2.00    1.00
  YS02001593YS02001596 CONDUIT    318.20     0  01:37      1.67    0.50    1.00
  YS02001596YS02001600 CONDUIT    318.18     0  02:02      1.24    0.62    1.00
  YS02001600YS02001601 CONDUIT    318.58     0  02:02      1.13    0.55    1.00
  YS02001601YS02001602 CONDUIT    538.62     0  01:15      1.90    1.95    1.00
  YS02001602YS02001605 CONDUIT    538.88     0  01:15      1.91   11.40    1.00
  YS02001605YS02001607 CONDUIT    539.11     0  01:15      1.91    2.96    1.00
  YS02001607YS02001610 CONDUIT    548.68     0  01:16      0.75    0.52    1.00
  YS02001610YS02001613 CONDUIT    554.48     0  01:16      0.72    0.64    1.00
  YS02001613YS02001616 CONDUIT    561.32     0  01:16      0.76    0.48    1.00
  YS02001616YS02001619 CONDUIT    535.28     0  01:16      0.81    0.93    1.00
  YS02001619YS02001622 CONDUIT    909.55     0  01:24      1.70    1.34    1.00
  YS02001622YS02001625 CONDUIT    912.92     0  01:16      1.16    0.49    1.00
  YS02001625YS02001629 CONDUIT    912.79     0  01:16      1.18    0.43    1.00
  YS02001629YS02163301 CONDUIT    910.57     0  01:23      1.16    1.12    1.00
  YS02001633YS02163601 CONDUIT   1292.19     0  01:24      1.65    1.36    1.00
  YS02001641YS02001644 CONDUIT   1293.67     0  01:24      1.65    4.18    1.00
  YS02001644YS02001647 CONDUIT   1632.12     0  01:24      2.13    0.96    1.00
  YS02001647YS02001649 CONDUIT   1655.00     0  01:23      2.31    0.87    1.00
  YS02001649YS02001757 CONDUIT   1941.94     0  01:26      2.57    1.18    1.00
  YS02001652YS02001649 CONDUIT    409.60     0  01:55      1.23    0.20    1.00
  YS02001655YS02001652 CONDUIT    424.95     0  01:27      1.71    0.21    1.00
  YS02001658YS02001655 CONDUIT    478.00     0  01:45      1.90    0.20    1.00
  YS02001661YS02001658 CONDUIT    743.61     0  01:55      2.14    0.29    0.72
  YS02001664YS02001661 CONDUIT    329.74     0  01:31      1.98    0.10    0.44
  YS02001745YS02001748 CONDUIT    353.34     0  02:00      1.96    0.14    0.57
  YS02001748YS02001751 CONDUIT    339.37     0  02:02      1.63    0.17    0.95
  YS02001751YS02001754 CONDUIT    289.15     0  01:30      1.59    0.14    1.00
  YS02001754YS02001757 CONDUIT    280.21     0  01:54      0.96    0.11    1.00
  YS02001757CaochengTiaoxuchi CONDUIT   2680.66     0  01:31      3.70    1.16    1.00
  YS02001759YS02001757 CONDUIT    724.74     0  01:31      1.29    0.51    1.00
  YS02001762YS02001759 CONDUIT    455.33     0  01:54      0.72    0.52    1.00
  YS02001765YS02001762 CONDUIT    448.56     0  01:54      0.84    0.42    1.00
  YS02001767YS02001765 CONDUIT    442.65     0  01:27      0.94    0.56    1.00
  YS02001770YS02001767 CONDUIT    472.91     0  01:27      0.90    1.87    1.00
  YS02001774YS02001770 CONDUIT     92.08     0  01:25      0.66    0.06    1.00
  YS02001779YS02001774 CONDUIT     74.99     0  01:26      0.17    0.04    1.00
  YS02001783YS02001784 CONDUIT   1141.92     0  01:31      2.27    1.57    1.00
  YS02001784YS02001785 CONDUIT   1142.61     0  01:31      2.27    2.66    1.00
  YS02001786YS02001788 CONDUIT   1142.71     0  01:31      2.45    2.20    0.88
  YS02001788YS02001790 CONDUIT   1155.81     0  01:34      2.70    0.85    0.83
  YS02001790YS02001791 CONDUIT   1272.14     0  01:32      3.41    1.38    0.70
  YS02001791YS02001793 CONDUIT   1224.82     0  01:41      6.73    0.53    0.44
  YS02001793JiankangQianchi CONDUIT   1240.72     0  01:34      2.48    0.10    0.65
  YS02001882YS02001884 CONDUIT     48.55     0  01:16      0.37    0.06    1.00
  YS02001884YS02001887 CONDUIT     98.88     0  01:12      0.31    0.13    1.00
  YS02001887YS02001890 CONDUIT    292.57     0  01:29      0.39    0.50    1.00
  YS02001890YS02001895 CONDUIT    293.99     0  01:24      0.42    0.14    1.00
  YS02001895YS02001898 CONDUIT    295.49     0  01:24      0.69    0.51    1.00
  YS02001898YS02001901 CONDUIT    297.62     0  01:24      0.55    0.19    1.00
  YS02001901YS02001904 CONDUIT    298.13     0  01:24      0.60    0.46    1.00
  YS02001904YS02001907 CONDUIT    297.40     0  01:23      0.38    0.10    1.00
  YS02001907YS02006553 CONDUIT    778.72     0  01:47      0.87    0.92    1.00
  YS02001910YS02001907 CONDUIT    664.71     0  01:27      0.85    0.37    1.00
  YS02001915YS02001910 CONDUIT    664.86     0  01:27      1.05    0.33    1.00
  YS02001918YS02001915 CONDUIT    279.35     0  01:27      0.44    0.15    1.00
  YS02001920YS02001918 CONDUIT    278.96     0  01:27      0.71    0.27    1.00
  YS02001923YS02001920 CONDUIT    276.12     0  01:27      0.79    0.12    1.00
  YS02001926YS02001923 CONDUIT    270.11     0  01:27      0.92    0.39    0.92
  YS02001929YS02001926 CONDUIT    234.39     0  01:26      1.03    0.11    0.82
  YS02006553YS02006556 CONDUIT    779.23     0  01:46      0.99    0.67    1.00
  YS02006556YS02006558 CONDUIT    778.59     0  01:47      0.99    0.61    1.00
  YS02006558YS02006561 CONDUIT   1141.78     0  01:31      4.04    2.52    1.00
  YS02006561YS02001783 CONDUIT   1142.35     0  01:28      2.27    0.59    1.00
  YS02163301YS02001633 CONDUIT    910.89     0  01:23      1.16    0.86    1.00
  YS02163601YS02164001 CONDUIT   1292.35     0  01:24      1.65    1.15    1.00
  YS02164001YS02001641 CONDUIT   1292.96     0  01:24      1.65    1.77    1.00
  CC-R1                PUMP       683.00     0  00:05              1.00
  CC-R2                PUMP       683.00     0  00:15              1.00
  CC-S1                PUMP       200.00     0  00:10              1.00
  CC-S2                PUMP       200.00     0  00:10              1.00
  JK-R1                PUMP      1000.00     0  00:05              1.00
  JK-R2                PUMP      1000.00     0  01:15              1.00
  JK-S                 PUMP       300.00     0  00:05              1.00
  
  
  ***************************
  Flow Classification Summary
  ***************************
  
  -------------------------------------------------------------------------------------
                      Adjusted    ---------- Fraction of Time in Flow Class ---------- 
                       /Actual         Up    Down  Sub   Sup   Up    Down  Norm  Inlet 
  Conduit               Length    Dry  Dry   Dry   Crit  Crit  Crit  Crit  Ltd   Ctrl  
  -------------------------------------------------------------------------------------
  1                       1.00   0.00  0.00  0.00  0.00  1.00  0.00  0.00  0.33  0.00
  WS02003060WS02003069    1.00   0.00  0.00  0.00  0.97  0.03  0.00  0.00  0.63  0.00
  WS02003066WSF200        1.00   0.03  0.00  0.00  0.00  0.97  0.00  0.00  0.84  0.00
  WS02003067WS02003066    1.00   0.02  0.01  0.00  0.97  0.00  0.00  0.00  0.00  0.00
  WS02003069WS02003072    1.00   0.00  0.00  0.00  0.99  0.01  0.00  0.00  0.67  0.00
  WS02003072WS02003073    1.00   0.00  0.00  0.00  0.00  0.00  0.00  1.00  0.00  0.00
  WS02004401WS02004402    1.00   0.00  0.00  0.00  1.00  0.00  0.00  0.00  0.00  0.00
  WS02004402WS02004403    1.00   0.00  0.00  0.00  1.00  0.00  0.00  0.00  0.00  0.00
  WS02004403WS02004404    1.00   0.00  0.00  0.00  1.00  0.00  0.00  0.00  0.00  0.00
  WS02004404WS02004405    1.00   0.00  0.00  0.00  1.00  0.00  0.00  0.00  0.01  0.00
  WS02004405WS02004406    1.00   0.00  0.00  0.00  1.00  0.00  0.00  0.00  0.00  0.00
  WS02004406WS02004407    1.00   0.00  0.00  0.00  1.00  0.00  0.00  0.00  0.00  0.00
  WS02004407WS02004409    1.00   0.00  0.00  0.00  0.99  0.01  0.00  0.00  0.99  0.00
  WS02004409WS02004410    1.00   0.00  0.00  0.00  0.99  0.00  0.00  0.00  0.00  0.00
  WS02004410WS02004411    1.00   0.01  0.00  0.00  0.99  0.00  0.00  0.00  0.00  0.00
  WS02004411WS02004412    1.00   0.01  0.00  0.00  0.99  0.00  0.00  0.00  0.00  0.00
  WS02004412WS02004413    1.00   0.01  0.00  0.00  0.99  0.00  0.00  0.00  0.00  0.00
  WS02004413WS02003067    1.00   0.01  0.01  0.00  0.00  0.00  0.98  0.00  0.00  0.00
  WS02006109WS02006110    1.00   0.00  0.00  0.00  1.00  0.00  0.00  0.00  0.00  0.00
  WS02006110WS02006113    1.00   0.00  0.00  0.00  1.00  0.00  0.00  0.00  0.00  0.00
  WS02006111WS02006112    1.00   0.00  0.00  0.00  1.00  0.00  0.00  0.00  1.00  0.00
  WS02006112WS02006115    1.00   0.00  0.00  0.00  1.00  0.00  0.00  0.00  0.00  0.00
  WS02006113WS02006111    1.00   0.00  0.00  0.00  0.01  0.99  0.00  0.00  0.14  0.00
  WS02006115WS02006116    1.00   0.00  0.00  0.00  1.00  0.00  0.00  0.00  0.00  0.00
  WS02006116WS02004401    1.00   0.00  0.00  0.00  1.00  0.00  0.00  0.00  0.00  0.00
  WS02006228WS02006109    1.00   0.00  0.00  0.00  1.00  0.00  0.00  0.00  0.00  0.00
  WS02006229WS02006228    1.00   0.00  0.00  0.00  1.00  0.00  0.00  0.00  0.00  0.00
  WS02006230WS02006229    1.00   0.00  0.00  0.00  1.00  0.00  0.00  0.00  0.03  0.00
  WS02006231WS02006230    1.00   0.00  0.00  0.00  0.34  0.00  0.66  0.00  0.00  0.00
  WS02006232WS02006231    1.00   0.00  0.00  0.00  0.99  0.00  0.01  0.00  0.00  0.00
  WS02006234WS02006232    1.00   0.00  0.00  0.00  0.99  0.00  0.00  0.00  0.02  0.00
  WS02006235WS02006234    1.00   0.01  0.00  0.00  0.89  0.00  0.10  0.00  0.00  0.00
  WS02006238WS02006235    1.00   0.01  0.00  0.00  0.99  0.00  0.00  0.00  0.00  0.00
  WS02006239WS02006238    1.00   0.01  0.00  0.00  0.99  0.00  0.00  0.00  0.15  0.00
  WS02006240WS02006239    1.00   0.01  0.00  0.00  0.73  0.00  0.00  0.26  0.05  0.00
  WS02006242WS02006240    1.00   0.01  0.00  0.00  0.97  0.00  0.01  0.00  0.00  0.00
  WS02006243WS02006242    1.00   0.02  0.00  0.00  0.98  0.00  0.00  0.01  0.53  0.00
  WS02006245WS02006243    1.00   0.02  0.00  0.00  0.80  0.00  0.00  0.18  0.00  0.00
  WS02006247WS02006245    1.00   0.02  0.00  0.00  0.94  0.00  0.00  0.04  0.00  0.00
  WS02006248WS02006247    1.00   0.02  0.00  0.00  0.96  0.00  0.00  0.02  0.46  0.00
  WS02006249WS02006248    1.00   0.00  0.02  0.00  0.47  0.00  0.52  0.00  0.00  0.00
  WS02006251WS02006249    1.00   0.00  0.00  0.00  0.99  0.01  0.00  0.00  0.52  0.00
  WS02006252WS02006251    1.00   0.02  0.48  0.00  0.14  0.00  0.36  0.00  0.00  0.00
  WS02006256WS02006235    1.00   0.01  0.00  0.00  0.97  0.02  0.00  0.00  0.00  0.00
  WSF200WS02003060        1.00   0.00  0.03  0.00  0.35  0.62  0.00  0.00  0.59  0.00
  YS02001580YS02001583    1.00   0.15  0.52  0.00  0.32  0.00  0.00  0.00  0.61  0.00
  YS02001583YS02001586    1.00   0.39  0.24  0.00  0.37  0.00  0.00  0.00  0.62  0.00
  YS02001586YS02001590    1.00   0.13  0.00  0.00  0.48  0.04  0.00  0.36  0.27  0.00
  YS02001590YS02001593    1.00   0.13  0.00  0.00  0.24  0.00  0.63  0.00  0.00  0.00
  YS02001593YS02001596    1.00   0.13  0.00  0.00  0.25  0.00  0.00  0.62  0.01  0.00
  YS02001596YS02001600    1.00   0.13  0.00  0.00  0.28  0.01  0.00  0.58  0.03  0.00
  YS02001600YS02001601    1.00   0.13  0.00  0.00  0.87  0.00  0.00  0.00  0.55  0.00
  YS02001601YS02001602    1.00   0.13  0.00  0.00  0.87  0.00  0.00  0.00  0.00  0.00
  YS02001602YS02001605    1.00   0.13  0.00  0.00  0.87  0.00  0.00  0.00  0.00  0.00
  YS02001605YS02001607    1.00   0.13  0.00  0.00  0.87  0.00  0.00  0.00  0.00  0.00
  YS02001607YS02001610    1.00   0.13  0.00  0.00  0.87  0.00  0.00  0.00  0.00  0.00
  YS02001610YS02001613    1.00   0.13  0.00  0.00  0.87  0.00  0.00  0.00  0.00  0.00
  YS02001613YS02001616    1.00   0.13  0.00  0.00  0.87  0.00  0.00  0.00  0.00  0.00
  YS02001616YS02001619    1.00   0.13  0.00  0.00  0.87  0.00  0.00  0.00  0.00  0.00
  YS02001619YS02001622    1.00   0.13  0.00  0.00  0.87  0.00  0.00  0.00  0.26  0.00
  YS02001622YS02001625    1.00   0.13  0.00  0.00  0.87  0.01  0.00  0.00  0.01  0.00
  YS02001625YS02001629    1.00   0.13  0.02  0.00  0.27  0.00  0.59  0.00  0.00  0.00
  YS02001629YS02163301    1.00   0.13  0.00  0.00  0.87  0.00  0.00  0.00  0.00  0.00
  YS02001633YS02163601    1.00   0.00  0.01  0.00  0.99  0.00  0.00  0.00  0.13  0.00
  YS02001641YS02001644    1.00   0.00  0.01  0.00  0.99  0.00  0.00  0.00  0.00  0.00
  YS02001644YS02001647    1.00   0.00  0.14  0.00  0.86  0.00  0.00  0.00  0.00  0.00
  YS02001647YS02001649    1.00   0.00  0.13  0.00  0.64  0.23  0.00  0.00  0.56  0.00
  YS02001649YS02001757    1.00   0.00  0.00  0.00  0.76  0.24  0.00  0.00  0.35  0.00
  YS02001652YS02001649    1.00   0.00  0.00  0.00  0.99  0.01  0.00  0.00  0.67  0.00
  YS02001655YS02001652    1.00   0.00  0.00  0.00  0.30  0.00  0.00  0.70  0.03  0.00
  YS02001658YS02001655    1.00   0.00  0.13  0.00  0.78  0.09  0.00  0.00  0.61  0.00
  YS02001661YS02001658    1.00   0.13  0.00  0.00  0.61  0.26  0.00  0.00  0.64  0.00
  YS02001664YS02001661    1.00   0.13  0.00  0.00  0.78  0.09  0.00  0.00  0.87  0.00
  YS02001745YS02001748    1.00   0.00  0.00  0.00  0.22  0.00  0.00  0.77  0.07  0.00
  YS02001748YS02001751    1.00   0.00  0.00  0.00  0.93  0.07  0.00  0.00  0.72  0.00
  YS02001751YS02001754    1.00   0.00  0.00  0.00  0.30  0.00  0.00  0.70  0.03  0.00
  YS02001754YS02001757    1.00   0.00  0.00  0.00  0.99  0.01  0.00  0.00  0.69  0.00
  YS02001757CaochengTiaoxuchi    1.00   0.00  0.00  0.00  0.97  0.03  0.00  0.00  0.66  0.00
  YS02001759YS02001757    1.00   0.00  0.00  0.00  0.99  0.01  0.00  0.00  0.63  0.00
  YS02001762YS02001759    1.00   0.00  0.00  0.00  1.00  0.00  0.00  0.00  0.01  0.00
  YS02001765YS02001762    1.00   0.00  0.00  0.00  1.00  0.00  0.00  0.00  0.65  0.00
  YS02001767YS02001765    1.00   0.00  0.00  0.00  1.00  0.00  0.00  0.00  0.00  0.00
  YS02001770YS02001767    1.00   0.00  0.00  0.00  1.00  0.00  0.00  0.00  0.00  0.00
  YS02001774YS02001770    1.00   0.00  0.13  0.00  0.72  0.00  0.15  0.00  0.00  0.00
  YS02001779YS02001774    1.00   0.00  0.00  0.00  1.00  0.00  0.00  0.00  0.68  0.00
  YS02001783YS02001784    1.00   0.00  0.14  0.00  0.86  0.00  0.00  0.00  0.53  0.00
  YS02001784YS02001785    1.00   0.00  0.00  0.00  1.00  0.00  0.00  0.00  0.13  0.00
  YS02001786YS02001788    1.00   0.00  0.00  0.00  0.82  0.18  0.00  0.00  0.00  0.00
  YS02001788YS02001790    1.00   0.00  0.00  0.00  0.19  0.81  0.00  0.00  0.74  0.00
  YS02001790YS02001791    1.00   0.00  0.00  0.00  0.01  0.99  0.00  0.00  0.13  0.00
  YS02001791YS02001793    1.00   0.00  0.00  0.00  0.00  1.00  0.00  0.00  0.01  0.00
  YS02001793JiankangQianchi    1.00   0.00  0.00  0.00  0.95  0.05  0.00  0.00  0.93  0.00
  YS02001882YS02001884    1.00   0.13  0.00  0.00  0.87  0.00  0.00  0.00  0.00  0.00
  YS02001884YS02001887    1.00   0.06  0.05  0.00  0.89  0.00  0.00  0.00  0.00  0.00
  YS02001887YS02001890    1.00   0.00  0.00  0.00  0.97  0.00  0.03  0.00  0.00  0.00
  YS02001890YS02001895    1.00   0.00  0.13  0.00  0.87  0.00  0.00  0.00  0.00  0.00
  YS02001895YS02001898    1.00   0.13  0.00  0.00  0.86  0.00  0.01  0.00  0.00  0.00
  YS02001898YS02001901    1.00   0.14  0.00  0.00  0.86  0.00  0.00  0.00  0.00  0.00
  YS02001901YS02001904    1.00   0.14  0.00  0.00  0.86  0.00  0.00  0.00  0.00  0.00
  YS02001904YS02001907    1.00   0.00  0.13  0.00  0.86  0.00  0.00  0.00  0.00  0.00
  YS02001907YS02006553    1.00   0.00  0.02  0.00  0.98  0.00  0.00  0.00  0.00  0.00
  YS02001910YS02001907    1.00   0.00  0.00  0.00  0.97  0.00  0.00  0.03  0.10  0.00
  YS02001915YS02001910    1.00   0.00  0.00  0.00  0.98  0.02  0.00  0.00  0.11  0.00
  YS02001918YS02001915    1.00   0.00  0.00  0.00  0.98  0.02  0.00  0.00  0.64  0.00
  YS02001920YS02001918    1.00   0.00  0.00  0.00  1.00  0.00  0.00  0.00  0.01  0.00
  YS02001923YS02001920    1.00   0.00  0.00  0.00  1.00  0.00  0.00  0.00  0.82  0.00
  YS02001926YS02001923    1.00   0.00  0.07  0.00  0.14  0.00  0.79  0.00  0.00  0.00
  YS02001929YS02001926    1.00   0.00  0.13  0.00  0.87  0.00  0.00  0.00  0.76  0.00
  YS02006553YS02006556    1.00   0.01  0.00  0.00  0.99  0.00  0.00  0.00  0.03  0.00
  YS02006556YS02006558    1.00   0.00  0.00  0.00  1.00  0.00  0.00  0.00  0.00  0.00
  YS02006558YS02006561    1.00   0.14  0.00  0.00  0.12  0.75  0.00  0.00  0.13  0.00
  YS02006561YS02001783    1.00   0.14  0.00  0.00  0.20  0.66  0.00  0.00  0.61  0.00
  YS02163301YS02001633    1.00   0.00  0.13  0.00  0.87  0.00  0.00  0.00  0.00  0.00
  YS02163601YS02164001    1.00   0.00  0.08  0.00  0.92  0.00  0.00  0.00  0.00  0.00
  YS02164001YS02001641    1.00   0.01  0.07  0.00  0.92  0.00  0.00  0.00  0.05  0.00
  
  
  *************************
  Conduit Surcharge Summary
  *************************
  
  ----------------------------------------------------------------------------
                                                           Hours        Hours 
                         --------- Hours Full --------   Above Full   Capacity
  Conduit                Both Ends  Upstream  Dnstream   Normal Flow   Limited
  ----------------------------------------------------------------------------
  WS02003072WS02003073        0.01      0.01      0.01      1.45         0.01
  WS02004401WS02004402        0.01      0.01      0.01      0.01         0.01
  WS02004402WS02004403        0.01      0.01      0.01      0.01         0.01
  WS02004403WS02004404        0.01      0.01      0.02      0.01         0.01
  WS02004404WS02004405        0.01      0.02      0.01      3.41         0.01
  WS02004405WS02004406        0.01      0.01      0.01      0.74         0.01
  WS02006109WS02006110        0.84      0.84      2.59      0.98         0.01
  WS02006110WS02006113        0.01      0.01      2.59      0.01         0.01
  WS02006111WS02006112        0.01      0.01      2.85      0.01         0.01
  WS02006112WS02006115        0.01      0.01      1.05      0.01         0.01
  WS02006113WS02006111        0.01      0.01      0.01      0.01         0.01
  WS02006115WS02006116        0.01      0.01      0.01      0.01         0.01
  WS02006116WS02004401        0.01      0.01      0.01      0.01         0.01
  WS02006228WS02006109        2.56      2.60      2.56      3.01         2.55
  WS02006229WS02006228        2.54      2.55      2.54      2.76         2.53
  WS02006230WS02006229        2.67      2.74      2.67      3.71         2.67
  WS02006231WS02006230        0.86      0.86      1.07      3.36         0.01
  WS02006232WS02006231        1.00      1.00      2.61      1.12         0.01
  WS02006234WS02006232        2.48      2.48      2.61      1.09         1.08
  WS02006235WS02006234        1.52      1.53      2.50      3.25         0.02
  WS02006238WS02006235        2.52      2.52      2.60      0.01         0.01
  WS02006239WS02006238        2.55      2.59      2.56      2.59         2.20
  WS02006240WS02006239        2.52      2.56      2.53      2.57         2.09
  WS02006242WS02006240        2.55      2.55      2.61      2.76         0.01
  WS02006243WS02006242        2.51      2.51      2.58      0.01         0.06
  WS02006245WS02006243        2.49      2.49      2.50      1.71         1.72
  WS02006247WS02006245        2.48      2.49      2.48      3.12         2.46
  WS02006248WS02006247        2.47      2.47      2.48      0.01         0.07
  WS02006249WS02006248        2.46      2.46      2.46      3.10         0.01
  WS02006251WS02006249        2.46      2.46      2.46      2.68         2.35
  WS02006252WS02006251        2.76      2.76      2.77      2.76         0.01
  WS02006256WS02006235        3.25      3.30      7.15      1.41         0.01
  YS02001580YS02001583        1.41      1.41      1.64      0.01         0.01
  YS02001583YS02001586        1.43      1.43      1.78      0.01         0.01
  YS02001586YS02001590        1.79      1.79      1.84      0.01         0.01
  YS02001590YS02001593        1.84      1.84      1.86      1.83         0.01
  YS02001593YS02001596        1.85      1.85      1.92      0.01         0.01
  YS02001596YS02001600        1.95      1.95      2.00      0.01         0.01
  YS02001600YS02001601        2.03      2.03      2.18      0.01         0.01
  YS02001601YS02001602        2.12      2.12      2.20      2.00         0.01
  YS02001602YS02001605        2.10      2.10      2.12      2.70         0.01
  YS02001605YS02001607        2.07      2.10      2.08      2.12         2.04
  YS02001607YS02001610        1.83      1.83      1.84      0.01         0.01
  YS02001610YS02001613        1.83      1.83      1.84      0.01         0.01
  YS02001613YS02001616        1.79      1.79      1.83      0.01         0.01
  YS02001616YS02001619        1.78      1.78      1.79      0.01         0.01
  YS02001619YS02001622        1.78      1.78      1.78      1.79         1.48
  YS02001622YS02001625        1.78      1.78      1.91      0.01         0.01
  YS02001625YS02001629        1.75      1.75      1.91      0.01         0.01
  YS02001629YS02163301        1.92      1.92      1.93      0.20         0.38
  YS02001633YS02163601        1.95      1.95      1.97      0.83         1.09
  YS02001641YS02001644        1.89      1.92      1.89      2.22         1.87
  YS02001644YS02001647        1.65      1.65      1.89      0.01         0.01
  YS02001647YS02001649        1.65      1.65      1.77      0.01         0.01
  YS02001649YS02001757        1.76      1.77      1.83      0.47         0.47
  YS02001652YS02001649        1.60      1.60      1.77      0.01         0.01
  YS02001655YS02001652        0.84      0.84      1.58      0.01         0.02
  YS02001658YS02001655        0.05      0.05      0.84      0.01         0.01
  YS02001661YS02001658        0.01      0.01      0.05      0.01         0.01
  YS02001748YS02001751        0.01      0.01      0.22      0.01         0.01
  YS02001751YS02001754        0.22      0.22      1.42      0.01         0.01
  YS02001754YS02001757        1.52      1.52      1.83      0.01         0.01
  YS02001757CaochengTiaoxuchi        1.76      1.83      2.26      0.63         0.47
  YS02001759YS02001757        1.73      1.73      1.83      0.01         0.01
  YS02001762YS02001759        1.70      1.70      1.73      0.01         0.01
  YS02001765YS02001762        1.65      1.65      1.70      0.01         0.01
  YS02001767YS02001765        1.62      1.62      1.65      0.01         0.01
  YS02001770YS02001767        1.62      1.64      1.62      1.34         0.95
  YS02001774YS02001770        1.58      1.58      1.70      0.01         0.01
  YS02001779YS02001774        1.43      1.43      1.70      0.01         0.01
  YS02001783YS02001784        1.20      1.25      1.20      1.57         1.20
  YS02001784YS02001785        0.84      1.20      0.84      1.88         0.84
  YS02001786YS02001788        0.01      0.84      0.01      1.80         0.01
  YS02001790YS02001791        0.01      0.01      0.01      1.12         0.01
  YS02001793JiankangQianchi        0.01      0.01      6.74      0.01         0.01
  YS02001882YS02001884        1.02      1.02      1.09      0.01         0.01
  YS02001884YS02001887        1.19      1.19      1.22      0.01         0.01
  YS02001887YS02001890        1.25      1.25      1.27      0.01         0.01
  YS02001890YS02001895        0.99      0.99      1.31      0.01         0.01
  YS02001895YS02001898        0.97      0.97      0.99      0.01         0.01
  YS02001898YS02001901        1.00      1.00      1.19      0.01         0.01
  YS02001901YS02001904        1.16      1.16      1.19      0.01         0.01
  YS02001904YS02001907        1.16      1.16      1.79      0.01         0.01
  YS02001907YS02006553        1.89      1.89      1.92      0.01         0.01
  YS02001910YS02001907        1.30      1.30      1.76      0.01         0.01
  YS02001915YS02001910        1.03      1.03      1.30      0.01         0.01
  YS02001918YS02001915        0.81      0.81      1.03      0.01         0.01
  YS02001920YS02001918        0.81      0.81      0.84      0.01         0.01
  YS02001923YS02001920        0.45      0.45      0.84      0.01         0.01
  YS02006553YS02006556        1.50      1.50      1.79      0.01         0.01
  YS02006556YS02006558        1.65      1.65      1.81      0.01         0.01
  YS02006558YS02006561        0.88      1.47      0.88      1.86         0.88
  YS02006561YS02001783        0.73      0.73      1.25      0.01         0.01
  YS02163301YS02001633        1.93      1.93      1.96      0.01         0.01
  YS02163601YS02164001        1.91      1.91      1.97      0.23         0.01
  YS02164001YS02001641        1.91      1.91      1.92      1.86         1.74
  
  
  ***************
  Pumping Summary
  ***************
  
  ---------------------------------------------------------------------------------------------------------
                                                  Min       Avg       Max     Total     Power    % Time Off
                        Percent   Number of      Flow      Flow      Flow    Volume     Usage    Pump Curve
  Pump                 Utilized   Start-Ups       LPS       LPS       LPS  10^6 ltr     Kw-hr    Low   High
  ---------------------------------------------------------------------------------------------------------
  CC-R1                   31.56          24      0.00    683.00    683.00     6.208    117.76    0.0   17.0
  CC-R2                   34.26          20      0.00    683.00    683.00     6.738    126.74    0.0   22.8
  CC-S1                   39.18          23      0.00    200.00    200.00     2.257     12.12    0.0    0.0
  CC-S2                   35.70          19      0.00    200.00    200.00     2.056     10.89    0.0    0.0
  JK-R1                   10.16          18      0.00   1000.00   1000.00     2.927     30.78    0.0    0.0
  JK-R2                    9.43          13      0.00   1000.00   1000.00     2.715     26.78    0.0    0.0
  JK-S                    17.20          40      0.00    300.00    300.00     1.486     23.05    0.0    0.0
  

  Analysis begun on:  Fri Aug  4 09:50:52 2023
  Analysis ended on:  Fri Aug  4 09:50:57 2023
  Total elapsed time: 00:00:05