
  OWA STORM WATER MANAGEMENT MODEL - VERSION v5.1.14 (OWA 2022-07-31)
  --------------------------------------------------------------

  WARNING 04: minimum elevation drop used for Conduit WS02004404WS02004405
  WARNING 03: negative offset ignored for Link YS02001904YS02001907
  
  *********************************************************
  NOTE: The summary statistics displayed in this report are
  based on results found at every computational time step,  
  not just on results from each reporting time step.
  *********************************************************
  
  ****************
  Analysis Options
  ****************
  Flow Units ............... LPS
  Process Models:
    Rainfall/Runoff ........ YES
    RDII ................... NO
    Snowmelt ............... NO
    Groundwater ............ NO
    Flow Routing ........... YES
    Ponding Allowed ........ NO
    Water Quality .......... NO
  Infiltration Method ...... HORTON
  Flow Routing Method ...... DYNWAVE
  Surcharge Method ......... EXTRAN
  Starting Date ............ 08/28/2015 08:00:00
  Ending Date .............. 08/28/2015 16:00:00
  Antecedent Dry Days ...... 8.0
  Report Time Step ......... 00:01:00
  Wet Time Step ............ 00:01:00
  Dry Time Step ............ 00:01:00
  Routing Time Step ........ 30.00 sec
  Variable Time Step ....... YES
  Maximum Trials ........... 8
  Number of Threads ........ 1
  Head Tolerance ........... 0.001500 m
  
  
  **************************        Volume         Depth
  Runoff Quantity Continuity     hectare-m            mm
  **************************     ---------       -------
  Total Precipitation ......         9.020       271.931
  Evaporation Loss .........         0.000         0.000
  Infiltration Loss ........         0.113         3.399
  Surface Runoff ...........         8.877       267.616
  Final Storage ............         0.033         1.000
  Continuity Error (%) .....        -0.031
  
  
  **************************        Volume        Volume
  Flow Routing Continuity        hectare-m      10^6 ltr
  **************************     ---------     ---------
  Dry Weather Inflow .......         0.000         0.000
  Wet Weather Inflow .......         8.877        88.772
  Groundwater Inflow .......         0.000         0.000
  RDII Inflow ..............         0.000         0.000
  External Inflow ..........         0.083         0.834
  External Outflow .........         2.559        25.595
  Flooding Loss ............         6.496        64.965
  Evaporation Loss .........         0.000         0.000
  Exfiltration Loss ........         0.000         0.000
  Initial Stored Volume ....         0.243         2.431
  Final Stored Volume ......         0.181         1.812
  Continuity Error (%) .....        -0.366
  
  
  *************************
  Highest Continuity Errors
  *************************
  Node YS02001884 (3.46%)
  Node YS02001583 (-3.11%)
  
  
  ***************************
  Time-Step Critical Elements
  ***************************
  Link WS02006252WS02006251 (74.21%)
  Link WS02006235WS02006234 (6.45%)
  Link YS02001791YS02001793 (6.18%)
  Link WS02004404WS02004405 (3.11%)
  Link YS02006556YS02006558 (2.78%)
  
  
  ********************************
  Highest Flow Instability Indexes
  ********************************
  Link WS02006113WS02006111 (59)
  Link WS02006111WS02006112 (34)
  Link WS02004404WS02004405 (18)
  Link WS02004403WS02004404 (16)
  Link WS02004405WS02004406 (15)
  
  
  *************************
  Routing Time Step Summary
  *************************
  Minimum Time Step           :     0.01 sec
  Average Time Step           :     1.11 sec
  Maximum Time Step           :    30.00 sec
  Percent in Steady State     :    -0.00
  Average Iterations per Step :     2.83
  Percent Not Converging      :     9.15
  
  
  ***************************
  Subcatchment Runoff Summary
  ***************************
  
  ------------------------------------------------------------------------------------------------------------------------------
                            Total      Total      Total      Total     Imperv       Perv      Total       Total     Peak  Runoff
                           Precip      Runon       Evap      Infil     Runoff     Runoff     Runoff      Runoff   Runoff   Coeff
  Subcatchment                 mm         mm         mm         mm         mm         mm         mm    10^6 ltr      LPS
  ------------------------------------------------------------------------------------------------------------------------------
  sub60                    316.61       0.00       0.00       1.97     277.51      36.04     313.55        4.12  3066.39   0.990
  sub61                    316.61       0.00       0.00       2.87     261.75      50.97     312.72        5.74  4276.60   0.988
  sub62                    316.61       0.00       0.00       1.31     290.08      24.03     314.11        8.61  6156.70   0.992
  sub63                    316.61       0.00       0.00       5.39     223.90      86.45     310.35        7.04  5064.97   0.980
  sub64                    316.61       0.00       0.00       2.71     267.99      44.79     312.78        7.51  5221.36   0.988
  sub65                    316.61       0.00       0.00       2.35     274.27      38.82     313.09        8.62  5927.19   0.989
  sub66                    316.61       0.00       0.00       6.86     223.76      84.97     308.73       14.40  8981.20   0.975
  sub67                    144.31       0.00       0.00       1.22     131.57      10.33     141.89        2.64  1772.01   0.983
  sub68                    144.31       0.00       0.00       2.30     122.96      17.91     140.86        3.88  2349.11   0.976
  sub69                    316.61       0.00       0.00       2.22     269.08      45.28     314.36       11.64  7924.18   0.993
  sub70                    316.61       0.00       0.00       7.68     208.83      99.98     308.81        8.92  5219.07   0.975
  sub71                    144.31       0.00       0.00       1.31     131.47      10.24     141.71        3.71  2016.36   0.982
  sub72                    144.31       0.00       0.00       1.17     132.83       8.94     141.77        1.95   975.62   0.982
  
  
  ******************
  Node Depth Summary
  ******************
  
  ---------------------------------------------------------------------------------
                                 Average  Maximum  Maximum  Time of Max    Reported
                                   Depth    Depth      HGL   Occurrence   Max Depth
  Node                 Type       Meters   Meters   Meters  days hr:min      Meters
  ---------------------------------------------------------------------------------
  WS02003060           JUNCTION     0.25     0.38     5.31     0  02:04        0.38
  WS02003066           JUNCTION     0.21     0.29     5.85     0  02:03        0.29
  WS02003067           JUNCTION     0.54     0.69     6.01     0  02:03        0.69
  WS02003069           JUNCTION     0.28     0.42     5.00     0  02:04        0.42
  WS02003072           JUNCTION     0.35     0.49     4.86     0  02:05        0.49
  WS02003073           JUNCTION     0.20     0.29     4.36     0  02:06        0.29
  WS02004401           JUNCTION     0.63     0.86     6.86     0  02:10        0.86
  WS02004402           JUNCTION     0.67     0.89     6.85     0  02:30        0.89
  WS02004403           JUNCTION     0.69     0.91     6.84     0  02:41        0.91
  WS02004404           JUNCTION     0.77     0.99     6.84     0  02:41        0.99
  WS02004405           JUNCTION     0.75     0.96     6.81     0  02:01        0.95
  WS02004406           JUNCTION     0.77     0.95     6.78     0  02:11        0.95
  WS02004407           JUNCTION     0.20     0.29     6.61     0  02:11        0.29
  WS02004409           JUNCTION     0.43     0.65     6.42     0  02:02        0.65
  WS02004410           JUNCTION     0.45     0.67     6.39     0  02:02        0.66
  WS02004411           JUNCTION     0.47     0.68     6.36     0  02:02        0.67
  WS02004412           JUNCTION     0.50     0.68     6.32     0  02:03        0.68
  WS02004413           JUNCTION     0.66     0.85     6.32     0  02:03        0.84
  WS02006109           JUNCTION     0.68     1.34     7.96     0  02:43        0.98
  WS02006110           JUNCTION     0.68     1.48     8.06     0  02:43        0.94
  WS02006111           JUNCTION     0.19     1.67     8.37     0  00:00        0.56
  WS02006112           JUNCTION     0.79     2.68     8.56     0  00:00        1.29
  WS02006113           JUNCTION     0.29     1.50     8.40     0  00:00        0.45
  WS02006115           JUNCTION     0.51     1.69     7.83     0  00:00        0.86
  WS02006116           JUNCTION     0.60     1.11     7.15     0  00:00        0.84
  WS02006228           JUNCTION     0.66     1.64     8.29     0  00:00        1.03
  WS02006229           JUNCTION     0.63     1.38     8.08     0  02:05        1.06
  WS02006230           JUNCTION     0.62     1.60     8.35     0  02:05        1.17
  WS02006231           JUNCTION     0.44     1.30     8.43     0  02:05        0.94
  WS02006232           JUNCTION     0.57     1.53     8.57     0  02:24        1.15
  WS02006234           JUNCTION     0.49     1.71     8.86     0  02:24        1.45
  WS02006235           JUNCTION     0.52     1.78     8.95     0  02:25        1.67
  WS02006238           JUNCTION     0.55     1.85     9.00     0  02:25        1.73
  WS02006239           JUNCTION     0.53     1.78     8.99     0  02:25        1.75
  WS02006240           JUNCTION     0.49     1.67     8.96     0  02:25        1.67
  WS02006242           JUNCTION     0.57     1.55     8.82     0  02:25        1.55
  WS02006243           JUNCTION     0.47     1.44     8.86     0  02:25        1.44
  WS02006245           JUNCTION     0.47     1.39     8.87     0  02:25        1.39
  WS02006247           JUNCTION     0.51     1.37     8.87     0  01:29        1.32
  WS02006248           JUNCTION     0.46     1.10     8.69     0  01:46        1.10
  WS02006249           JUNCTION     0.50     1.09     8.69     0  01:30        1.09
  WS02006251           JUNCTION     0.50     1.67     9.34     0  02:42        1.13
  WS02006252           JUNCTION     0.39     1.50     9.74     0  01:27        0.69
  WS02006256           JUNCTION     0.82     2.35     9.28     0  01:23        2.35
  WSF200               JUNCTION     0.19     0.28     5.52     0  02:13        0.28
  YS02001580           JUNCTION     0.12     1.05     9.59     0  01:22        0.77
  YS02001583           JUNCTION     0.15     1.14     9.64     0  01:22        0.84
  YS02001586           JUNCTION     0.22     1.13     9.30     0  01:22        1.13
  YS02001590           JUNCTION     0.31     1.40     9.26     0  01:22        1.40
  YS02001593           JUNCTION     0.26     1.35     9.21     0  01:39        1.35
  YS02001596           JUNCTION     0.34     1.77     9.19     0  01:39        1.77
  YS02001600           JUNCTION     0.39     1.87     9.00     0  01:22        1.87
  YS02001601           JUNCTION     0.54     2.06     8.90     0  01:21        2.06
  YS02001602           JUNCTION     0.46     1.87     8.77     0  01:22        1.87
  YS02001605           JUNCTION     0.43     1.78     8.68     0  01:39        1.78
  YS02001607           JUNCTION     0.42     1.68     8.53     0  01:39        1.68
  YS02001610           JUNCTION     0.46     1.68     8.48     0  01:30        1.68
  YS02001613           JUNCTION     0.42     1.68     8.52     0  02:11        1.68
  YS02001616           JUNCTION     0.37     1.61     8.52     0  01:39        1.61
  YS02001619           JUNCTION     0.35     1.61     8.54     0  01:39        1.61
  YS02001622           JUNCTION     0.34     1.62     8.52     0  01:39        1.62
  YS02001625           JUNCTION     0.56     1.78     8.38     0  01:31        1.78
  YS02001629           JUNCTION     0.44     1.85     8.40     0  01:36        1.85
  YS02001633           JUNCTION     0.52     2.08     8.53     0  01:39        2.08
  YS02001641           JUNCTION     0.50     2.10     8.54     0  01:39        2.10
  YS02001644           JUNCTION     0.50     1.92     8.35     0  01:37        1.92
  YS02001647           JUNCTION     0.34     1.90     8.51     0  01:39        1.90
  YS02001649           JUNCTION     0.39     2.05     8.44     0  01:39        2.05
  YS02001652           JUNCTION     0.31     2.16     8.76     0  01:39        2.16
  YS02001655           JUNCTION     0.27     2.20     9.05     0  02:28        2.20
  YS02001658           JUNCTION     0.22     2.30     9.44     0  02:28        2.30
  YS02001661           JUNCTION     0.24     2.46     9.86     0  02:28        2.46
  YS02001664           JUNCTION     0.13     2.31    10.23     0  02:28        2.31
  YS02001745           JUNCTION     0.14     2.35     9.87     0  02:35        2.35
  YS02001748           JUNCTION     0.21     2.27     9.35     0  02:33        2.27
  YS02001751           JUNCTION     0.24     2.20     9.08     0  02:35        2.19
  YS02001754           JUNCTION     0.29     2.20     8.81     0  01:39        2.20
  YS02001757           JUNCTION     0.42     2.21     8.47     0  01:39        2.21
  YS02001759           JUNCTION     0.37     2.21     8.57     0  01:39        2.21
  YS02001762           JUNCTION     0.36     2.15     8.55     0  01:39        2.15
  YS02001765           JUNCTION     0.34     2.10     8.55     0  01:39        2.10
  YS02001767           JUNCTION     0.34     2.03     8.52     0  01:39        2.03
  YS02001770           JUNCTION     0.34     1.95     8.44     0  01:39        1.95
  YS02001774           JUNCTION     0.40     2.05     8.47     0  01:39        2.05
  YS02001779           JUNCTION     0.27     1.68     8.37     0  01:39        1.68
  YS02001783           JUNCTION     0.20     1.73     7.87     0  01:22        1.30
  YS02001784           JUNCTION     0.19     1.57     7.64     0  01:22        1.38
  YS02001786           JUNCTION     0.16     1.62     7.65     0  01:22        0.90
  YS02001788           JUNCTION     0.11     0.64     6.61     0  01:22        0.63
  YS02001790           JUNCTION     0.13     0.73     6.37     0  01:38        0.72
  YS02001791           JUNCTION     0.08     0.44     5.91     0  01:31        0.44
  YS02001793           JUNCTION     0.04     0.29     5.13     0  01:24        0.29
  YS02001882           JUNCTION     0.27     1.83     8.55     0  01:21        1.78
  YS02001884           JUNCTION     0.34     1.93     8.55     0  01:21        1.88
  YS02001887           JUNCTION     0.41     1.96     8.49     0  01:25        1.96
  YS02001890           JUNCTION     0.43     1.81     8.32     0  01:21        1.81
  YS02001895           JUNCTION     0.24     1.75     8.50     0  01:21        1.58
  YS02001898           JUNCTION     0.24     1.77     8.51     0  01:21        1.58
  YS02001901           JUNCTION     0.34     1.87     8.48     0  01:21        1.67
  YS02001904           JUNCTION     0.32     1.85     8.48     0  01:21        1.64
  YS02001907           JUNCTION     0.59     1.96     8.25     0  01:21        1.96
  YS02001910           JUNCTION     0.43     2.03     8.54     0  01:22        2.01
  YS02001915           JUNCTION     0.28     2.00     8.72     0  01:22        2.00
  YS02001918           JUNCTION     0.17     1.81     8.88     0  01:22        1.76
  YS02001920           JUNCTION     0.22     2.14     9.15     0  01:22        1.87
  YS02001923           JUNCTION     0.14     2.03     9.29     0  01:22        1.67
  YS02001926           JUNCTION     0.16     1.90     9.35     0  01:22        1.71
  YS02001929           JUNCTION     0.10     1.78     9.47     0  01:23        1.34
  YS02006553           JUNCTION     0.59     2.06     8.35     0  01:22        2.02
  YS02006556           JUNCTION     0.57     2.15     8.46     0  01:22        2.06
  YS02006558           JUNCTION     0.60     2.21     8.48     0  01:22        2.15
  YS02006561           JUNCTION     0.13     1.33     7.99     0  01:22        0.98
  YS02163301           JUNCTION     0.47     2.03     8.55     0  02:28        2.03
  YS02163601           JUNCTION     0.55     2.08     8.48     0  01:39        2.08
  YS02164001           JUNCTION     0.49     2.10     8.56     0  01:39        2.10
  CC-1                 OUTFALL      0.00     0.00     0.00     0  00:00        0.00
  CC-2                 OUTFALL      0.00     0.00     0.00     0  00:00        0.00
  JK-1                 OUTFALL      0.00     0.00     0.00     0  00:00        0.00
  JK-2                 OUTFALL      0.00     0.00     0.00     0  00:00        0.00
  WSC                  OUTFALL      0.20     0.29     0.96     0  02:06        0.29
  CC-storage           STORAGE      0.95     2.30     7.80     0  02:36        2.30
  JK-storage           STORAGE      1.42     4.21     5.01     0  01:45        4.21
  
  
  *******************
  Node Inflow Summary
  *******************
  
  -------------------------------------------------------------------------------------------------
                                  Maximum  Maximum                  Lateral       Total        Flow
                                  Lateral    Total  Time of Max      Inflow      Inflow     Balance
                                   Inflow   Inflow   Occurrence      Volume      Volume       Error
  Node                 Type           LPS      LPS  days hr:min    10^6 ltr    10^6 ltr     Percent
  -------------------------------------------------------------------------------------------------
  WS02003060           JUNCTION     16.53   530.58     0  02:13       0.476        8.18       0.029
  WS02003066           JUNCTION      0.00   513.54     0  02:03           0        7.71       0.017
  WS02003067           JUNCTION      0.00   513.24     0  02:03           0        7.71       0.054
  WS02003069           JUNCTION      0.32   531.37     0  02:04     0.00922        8.19       0.047
  WS02003072           JUNCTION      0.00   529.88     0  02:04           0        8.18       0.083
  WS02003073           JUNCTION      1.82   530.42     0  02:05      0.0524        8.23       0.068
  WS02004401           JUNCTION      0.00  1786.04     0  00:00           0        7.82       0.139
  WS02004402           JUNCTION      0.00  1248.69     0  00:01           0        7.81       0.140
  WS02004403           JUNCTION      0.00   929.44     0  00:01           0         7.8       0.136
  WS02004404           JUNCTION      0.00   877.02     0  00:01           0        7.79       0.179
  WS02004405           JUNCTION      0.00   827.31     0  00:01           0        7.77       0.064
  WS02004406           JUNCTION      0.00   768.45     0  00:02           0        7.77       0.276
  WS02004407           JUNCTION      0.00   525.42     0  02:11           0        7.75       0.014
  WS02004409           JUNCTION      0.00   524.60     0  02:11           0        7.74       0.034
  WS02004410           JUNCTION      0.00   521.03     0  02:02           0        7.74       0.056
  WS02004411           JUNCTION      0.00   518.18     0  02:02           0        7.74       0.072
  WS02004412           JUNCTION      0.00   516.75     0  02:02           0        7.73       0.095
  WS02004413           JUNCTION      0.00   514.44     0  02:13           0        7.72       0.173
  WS02006109           JUNCTION      0.00  1446.81     0  00:00           0        7.72      -0.049
  WS02006110           JUNCTION      0.00   560.87     0  02:05           0        7.69      -0.712
  WS02006111           JUNCTION      0.00  1180.41     0  00:00           0        7.75      -0.553
  WS02006112           JUNCTION      0.00  2307.30     0  00:00           0        7.79       0.001
  WS02006113           JUNCTION      0.00   569.42     0  02:43           0        7.71      -0.491
  WS02006115           JUNCTION      0.00   953.54     0  00:00           0        7.76      -0.460
  WS02006116           JUNCTION      0.00  1264.47     0  00:00           0        7.79      -0.300
  WS02006228           JUNCTION      0.00   869.18     0  00:00           0         7.7       0.001
  WS02006229           JUNCTION      0.00   560.33     0  02:05           0        7.69      -0.040
  WS02006230           JUNCTION     10.28   706.67     0  00:00       0.296        7.68       0.017
  WS02006231           JUNCTION      0.00   574.88     0  01:45           0        7.37       0.008
  WS02006232           JUNCTION      0.00   574.21     0  01:45           0        7.37       0.058
  WS02006234           JUNCTION      0.00   570.08     0  01:45           0        7.36      -0.013
  WS02006235           JUNCTION      0.00   562.37     0  01:45           0        7.36       0.029
  WS02006238           JUNCTION      0.00   428.50     0  02:40           0        6.88      -0.001
  WS02006239           JUNCTION      0.00   430.92     0  01:30           0        6.87      -0.026
  WS02006240           JUNCTION      0.00   421.85     0  02:40           0        6.87       0.007
  WS02006242           JUNCTION      0.00   421.58     0  02:40           0        6.88       0.031
  WS02006243           JUNCTION      0.00   423.29     0  01:31           0        6.88       0.005
  WS02006245           JUNCTION      0.00   424.58     0  01:31           0        6.88       0.048
  WS02006247           JUNCTION      0.00   424.62     0  01:31           0        6.88       0.013
  WS02006248           JUNCTION      0.00   425.57     0  01:31           0        6.88       0.012
  WS02006249           JUNCTION      0.00   434.20     0  02:42           0        7.01       0.048
  WS02006251           JUNCTION      0.00   410.64     0  02:42           0        7.01       0.006
  WS02006252           JUNCTION      0.00   400.00     0  01:27           0        7.01      -0.084
  WS02006256           JUNCTION      0.00   300.00     0  01:23           0       0.723      -0.371
  WSF200               JUNCTION      0.00   513.68     0  02:03           0        7.71       0.006
  YS02001580           JUNCTION      0.00    75.76     0  01:22           0      0.0045       2.067
  YS02001583           JUNCTION      0.00   103.45     0  01:21           0      0.0164      -3.013
  YS02001586           JUNCTION   5219.07  5219.25     0  02:37        8.92        8.93       0.018
  YS02001590           JUNCTION      0.00   318.60     0  02:11           0        2.64      -0.035
  YS02001593           JUNCTION      0.00   318.25     0  03:01           0        2.64       0.002
  YS02001596           JUNCTION      0.00   318.13     0  03:12           0        2.64      -0.010
  YS02001600           JUNCTION      0.00   318.14     0  01:57           0        2.64       0.005
  YS02001601           JUNCTION   7924.18  8241.64     0  02:37        11.6        14.3       0.009
  YS02001602           JUNCTION      0.00   510.49     0  01:21           0        3.66       0.008
  YS02001605           JUNCTION      0.00   510.59     0  01:21           0        3.28       0.012
  YS02001607           JUNCTION      0.00   510.75     0  01:21           0        3.28       0.055
  YS02001610           JUNCTION      0.00   956.77     0  02:28           0        5.42       0.037
  YS02001613           JUNCTION      0.00   618.37     0  02:25           0        3.65       0.033
  YS02001616           JUNCTION      0.00   620.31     0  02:28           0        3.65       0.008
  YS02001619           JUNCTION   8981.20  8981.20     0  02:37        14.4        15.9       0.007
  YS02001622           JUNCTION      0.00  1054.02     0  02:38           0        7.83      -0.002
  YS02001625           JUNCTION      0.00  1505.52     0  02:36           0        9.43       0.121
  YS02001629           JUNCTION      0.00  1139.08     0  02:39           0        5.65      -0.007
  YS02001633           JUNCTION   5927.19  5927.19     0  02:37        8.62        11.5       0.031
  YS02001641           JUNCTION      0.00  1264.42     0  01:29           0        6.78       0.033
  YS02001644           JUNCTION   5221.36  6973.18     0  02:37        7.51          16       0.022
  YS02001647           JUNCTION      0.00  1589.81     0  01:29           0        7.47      -0.003
  YS02001649           JUNCTION      0.00  3237.15     0  02:36           0        12.6       0.000
  YS02001652           JUNCTION      0.00  2429.30     0  02:37           0        6.16      -0.028
  YS02001655           JUNCTION      0.00  2731.29     0  02:39           0        6.36       0.027
  YS02001658           JUNCTION      0.00  2783.74     0  02:36           0        6.39      -0.052
  YS02001661           JUNCTION      0.00  2783.82     0  02:36           0        6.39      -0.050
  YS02001664           JUNCTION   5064.97  5064.97     0  02:36        7.04        7.04       0.007
  YS02001745           JUNCTION   3066.39  3066.39     0  02:36        4.12        4.12       0.031
  YS02001748           JUNCTION      0.00  3063.72     0  02:36           0        4.12      -0.083
  YS02001751           JUNCTION      0.00  2353.93     0  02:35           0        4.02       0.019
  YS02001754           JUNCTION      0.00  2354.28     0  02:36           0        4.02      -0.053
  YS02001757           JUNCTION      0.00  3761.17     0  02:35           0          19       0.010
  YS02001759           JUNCTION   4276.60  4276.60     0  02:36        5.74        7.95      -0.013
  YS02001762           JUNCTION      0.00   724.13     0  02:39           0        3.07      -0.014
  YS02001765           JUNCTION      0.00   723.40     0  02:39           0        3.06      -0.009
  YS02001767           JUNCTION      0.00   723.71     0  02:36           0        3.06      -0.009
  YS02001770           JUNCTION   6156.70  6879.31     0  02:36        8.61         9.5       0.000
  YS02001774           JUNCTION      0.00   852.17     0  02:32           0        2.54       0.027
  YS02001779           JUNCTION      0.00   851.79     0  02:32           0        2.49      -0.002
  YS02001783           JUNCTION      0.00  1209.67     0  01:27           0        6.34      -0.002
  YS02001784           JUNCTION      0.00  1209.68     0  01:27           0        6.34      -0.001
  YS02001786           JUNCTION      0.00  1209.71     0  01:27           0        6.34       0.003
  YS02001788           JUNCTION      0.00  1210.17     0  01:27           0        6.34       0.001
  YS02001790           JUNCTION      0.00  1212.76     0  01:28           0        6.34       0.022
  YS02001791           JUNCTION      0.00  1293.52     0  01:32           0        6.34      -0.040
  YS02001793           JUNCTION      0.00  1251.97     0  01:35           0        6.34       0.003
  YS02001882           JUNCTION      0.00   137.81     0  01:21           0      0.0145       3.054
  YS02001884           JUNCTION      0.00   153.66     0  01:21           0      0.0519       3.586
  YS02001887           JUNCTION   1772.01  1772.45     0  01:26        2.64        2.68       0.146
  YS02001890           JUNCTION      0.00  1772.72     0  01:26           0        2.63       0.135
  YS02001895           JUNCTION      0.00   603.62     0  01:22           0        1.87       0.111
  YS02001898           JUNCTION      0.00   603.26     0  01:22           0        1.87      -0.063
  YS02001901           JUNCTION      0.00   601.52     0  01:22           0        1.87       0.138
  YS02001904           JUNCTION      0.00   600.77     0  01:22           0        1.89       0.107
  YS02001907           JUNCTION      0.00  3652.55     0  01:27           0        7.66       0.186
  YS02001910           JUNCTION      0.00  1993.16     0  01:34           0        5.19       0.121
  YS02001915           JUNCTION   2016.36  2981.44     0  01:28        3.71        5.71      -0.001
  YS02001918           JUNCTION      0.00   977.89     0  01:29           0        2.04      -0.031
  YS02001920           JUNCTION      0.00   977.28     0  01:29           0        2.01       0.011
  YS02001923           JUNCTION      0.00  1143.46     0  01:22           0        1.99      -0.059
  YS02001926           JUNCTION      0.00  1465.52     0  01:22           0        1.97      -0.016
  YS02001929           JUNCTION    975.62   975.62     0  01:29        1.95        1.96      -0.050
  YS02006553           JUNCTION      0.00  1141.16     0  01:27           0         3.7       0.298
  YS02006556           JUNCTION      0.00  1140.05     0  01:27           0        3.72       0.191
  YS02006558           JUNCTION   2349.11  2349.11     0  01:27        3.88        6.98       0.045
  YS02006561           JUNCTION      0.00  1209.73     0  01:27           0        6.34      -0.003
  YS02163301           JUNCTION      0.00  1138.97     0  02:38           0        5.66       0.018
  YS02163601           JUNCTION      0.00  1266.07     0  01:29           0        6.77       0.072
  YS02164001           JUNCTION      0.00  1265.86     0  01:29           0        6.77       0.024
  CC-1                 OUTFALL       0.00   683.00     0  01:32           0        6.26       0.000
  CC-2                 OUTFALL       0.00   683.00     0  01:38           0        5.39       0.000
  JK-1                 OUTFALL       0.00  1000.00     0  00:05           0        2.97       0.000
  JK-2                 OUTFALL       0.00  1000.00     0  00:05           0        2.76       0.000
  WSC                  OUTFALL       0.00   528.61     0  02:06           0        8.22       0.000
  CC-storage           STORAGE       0.00  2722.40     0  01:48           0        20.3      -0.153
  JK-storage           STORAGE       0.00  1298.25     0  01:36           0        6.49      -0.242
  
  
  **********************
  Node Surcharge Summary
  **********************
  
  Surcharging occurs when water rises above the top of the highest conduit.
  ---------------------------------------------------------------------
                                               Max. Height   Min. Depth
                                   Hours       Above Crown    Below Rim
  Node                 Type      Surcharged         Meters       Meters
  ---------------------------------------------------------------------
  WS02006109           JUNCTION        3.02          0.523        1.297
  WS02006110           JUNCTION        0.40          0.567        1.283
  WS02006111           JUNCTION        0.01          0.856        1.014
  WS02006112           JUNCTION        0.57          1.680        0.000
  WS02006113           JUNCTION        0.01          0.705        1.225
  WS02006115           JUNCTION        0.01          0.682        1.568
  WS02006116           JUNCTION        0.01          0.053        2.237
  WS02006228           JUNCTION        3.01          0.810        1.390
  WS02006229           JUNCTION        3.03          0.583        1.867
  WS02006230           JUNCTION        0.41          0.524        1.046
  WS02006231           JUNCTION        0.52          0.595        0.935
  WS02006232           JUNCTION        3.06          0.829        0.651
  WS02006234           JUNCTION        0.73          0.986        0.254
  WS02006235           JUNCTION        2.98          1.072        0.218
  WS02006238           JUNCTION        3.01          1.133        0.297
  WS02006239           JUNCTION        2.99          1.041        0.249
  WS02006240           JUNCTION        3.01          0.961        0.429
  WS02006242           JUNCTION        3.04          0.820        0.000
  WS02006243           JUNCTION        3.01          0.734        0.036
  WS02006245           JUNCTION        3.01          0.677        0.173
  WS02006247           JUNCTION        3.01          0.661        0.099
  WS02006248           JUNCTION        3.00          0.380        0.000
  WS02006249           JUNCTION        3.00          0.390        0.000
  WS02006251           JUNCTION        0.56          0.642        0.538
  WS02006252           JUNCTION        3.07          1.100        0.000
  WS02006256           JUNCTION        7.85          2.050        0.000
  YS02001580           JUNCTION        1.84          0.450        0.000
  YS02001583           JUNCTION        1.84          0.500        0.000
  YS02001586           JUNCTION        1.95          0.510        0.000
  YS02001590           JUNCTION        2.03          0.747        0.003
  YS02001593           JUNCTION        2.03          0.725        0.115
  YS02001596           JUNCTION        2.13          1.040        0.030
  YS02001600           JUNCTION        2.24          1.190        0.000
  YS02001601           JUNCTION        2.47          1.440        0.000
  YS02001602           JUNCTION        2.41          1.270        0.000
  YS02001605           JUNCTION        2.38          1.180        0.000
  YS02001607           JUNCTION        2.04          0.680        0.000
  YS02001610           JUNCTION        2.06          0.680        0.000
  YS02001613           JUNCTION        2.04          0.681        0.019
  YS02001616           JUNCTION        2.00          0.610        0.000
  YS02001619           JUNCTION        1.99          0.610        0.000
  YS02001622           JUNCTION        1.99          0.620        0.000
  YS02001625           JUNCTION        2.16          0.780        0.000
  YS02001629           JUNCTION        1.92          0.470        0.000
  YS02001633           JUNCTION        2.22          1.060        0.000
  YS02001641           JUNCTION        2.19          1.100        0.000
  YS02001644           JUNCTION        2.17          0.920        0.000
  YS02001647           JUNCTION        1.92          0.900        0.000
  YS02001649           JUNCTION        2.06          1.050        0.000
  YS02001652           JUNCTION        1.87          1.130        0.000
  YS02001655           JUNCTION        1.69          1.200        0.000
  YS02001658           JUNCTION        1.35          1.300        0.000
  YS02001661           JUNCTION        0.74          1.390        0.000
  YS02001664           JUNCTION        0.41          1.310        0.000
  YS02001745           JUNCTION        0.44          1.350        0.000
  YS02001748           JUNCTION        1.22          1.190        0.000
  YS02001751           JUNCTION        1.58          1.200        0.000
  YS02001754           JUNCTION        1.81          1.150        0.000
  YS02001757           JUNCTION        2.14          1.210        0.000
  YS02001759           JUNCTION        2.05          1.210        0.000
  YS02001762           JUNCTION        2.02          1.150        0.000
  YS02001765           JUNCTION        1.98          1.100        0.000
  YS02001767           JUNCTION        1.95          1.030        0.000
  YS02001770           JUNCTION        1.93          0.920        0.000
  YS02001774           JUNCTION        2.00          1.050        0.000
  YS02001779           JUNCTION        1.79          0.680        0.000
  YS02001783           JUNCTION        1.09          0.929        0.671
  YS02001784           JUNCTION        1.05          0.769        0.721
  YS02001786           JUNCTION        0.90          0.824        0.606
  YS02001882           JUNCTION        1.00          0.830        0.000
  YS02001884           JUNCTION        1.01          0.870        0.000
  YS02001887           JUNCTION        1.07          0.906        0.044
  YS02001890           JUNCTION        1.09          0.760        0.000
  YS02001895           JUNCTION        0.98          0.750        0.000
  YS02001898           JUNCTION        0.97          0.740        0.000
  YS02001901           JUNCTION        1.05          0.870        0.000
  YS02001904           JUNCTION        1.03          0.850        0.000
  YS02001907           JUNCTION        1.43          0.950        0.000
  YS02001910           JUNCTION        1.13          1.034        0.066
  YS02001915           JUNCTION        1.00          1.000        0.000
  YS02001918           JUNCTION        0.87          0.810        0.000
  YS02001920           JUNCTION        0.90          1.140        0.000
  YS02001923           JUNCTION        0.39          0.820        0.000
  YS02001926           JUNCTION        0.42          0.900        0.000
  YS02001929           JUNCTION        0.28          0.780        0.000
  YS02006553           JUNCTION        1.51          1.063        0.127
  YS02006556           JUNCTION        1.26          1.106        0.244
  YS02006558           JUNCTION        1.24          1.112        0.288
  YS02006561           JUNCTION        0.83          0.535        0.615
  YS02163301           JUNCTION        2.19          1.030        0.000
  YS02163601           JUNCTION        2.26          1.080        0.000
  YS02164001           JUNCTION        2.19          1.100        0.000
  
  
  *********************
  Node Flooding Summary
  *********************
  
  Flooding refers to all water that overflows a node, whether it ponds or not.
  --------------------------------------------------------------------------
                                                             Total   Maximum
                                 Maximum   Time of Max       Flood    Ponded
                        Hours       Rate    Occurrence      Volume     Depth
  Node                 Flooded       LPS   days hr:min    10^6 ltr    Meters
  --------------------------------------------------------------------------
  WS02006112              0.01   1405.86      0  00:00       0.047     0.000
  WS02006242              0.01     10.02      0  02:25       0.000     0.000
  WS02006248              0.01      5.50      0  02:25       0.000     0.000
  WS02006249              0.54     95.72      0  01:30       0.128     0.000
  WS02006252              0.01      0.91      0  01:27       0.000     0.000
  WS02006256              0.67    283.68      0  01:23       0.243     0.000
  YS02001580              0.01     63.54      0  01:22       0.000     0.000
  YS02001583              0.01     30.51      0  01:22       0.000     0.000
  YS02001586              1.66   4899.91      0  02:37       6.279     0.000
  YS02001600              0.01      6.84      0  01:39       0.000     0.000
  YS02001601              1.88   7843.20      0  02:37      10.620     0.000
  YS02001602              1.75     62.39      0  02:28       0.378     0.000
  YS02001605              0.01      0.17      0  02:28       0.000     0.000
  YS02001607              0.01      0.14      0  01:39       0.000     0.000
  YS02001610              1.67    954.79      0  02:25       3.919     0.000
  YS02001616              0.18      4.24      0  02:28       0.001     0.000
  YS02001619              0.73   7309.46      0  02:37       5.923     0.000
  YS02001622              0.01      0.74      0  02:28       0.000     0.000
  YS02001625              1.66   1505.28      0  02:36       6.561     0.000
  YS02001629              0.76    686.88      0  02:39       1.187     0.000
  YS02001633              0.34   3883.70      0  02:37       1.913     0.000
  YS02001641              0.01      1.96      0  01:39       0.000     0.000
  YS02001644              1.25   6972.71      0  02:37      10.144     0.000
  YS02001647              0.01      4.72      0  01:39       0.000     0.000
  YS02001649              0.42   2390.33      0  02:36       2.353     0.000
  YS02001652              0.01     53.20      0  01:39       0.000     0.000
  YS02001655              0.21    303.13      0  02:32       0.204     0.000
  YS02001658              0.17     52.17      0  02:36       0.031     0.000
  YS02001661              0.01      0.26      0  02:28       0.000     0.000
  YS02001664              0.17   2279.93      0  02:36       0.659     0.000
  YS02001745              0.01      3.83      0  02:35       0.000     0.000
  YS02001748              0.08    710.21      0  02:36       0.107     0.000
  YS02001751              0.01      0.47      0  02:35       0.000     0.000
  YS02001754              0.01      1.24      0  01:39       0.000     0.000
  YS02001757              0.19    783.13      0  02:38       0.316     0.000
  YS02001759              0.19   2143.31      0  02:36       0.659     0.000
  YS02001762              0.08     11.76      0  02:41       0.000     0.000
  YS02001765              0.01      7.72      0  02:41       0.000     0.000
  YS02001767              0.01      3.61      0  01:39       0.000     0.000
  YS02001770              0.61   6026.49      0  02:36       4.772     0.000
  YS02001774              0.01      4.07      0  01:39       0.000     0.000
  YS02001779              1.12    851.49      0  02:32       2.470     0.000
  YS02001882              0.01     73.84      0  01:21       0.000     0.000
  YS02001884              0.01     64.42      0  01:21       0.000     0.000
  YS02001890              0.40   1251.70      0  01:26       0.757     0.000
  YS02001895              0.01    173.65      0  01:21       0.000     0.000
  YS02001898              0.01    208.63      0  01:21       0.001     0.000
  YS02001901              0.01     22.00      0  01:21       0.000     0.000
  YS02001904              0.01    104.05      0  01:21       0.000     0.000
  YS02001907              0.79   3652.28      0  01:27       4.535     0.000
  YS02001915              0.23    988.68      0  01:28       0.466     0.000
  YS02001918              0.01    506.34      0  01:22       0.007     0.000
  YS02001920              0.01    301.12      0  01:22       0.000     0.000
  YS02001923              0.01    422.50      0  01:23       0.003     0.000
  YS02001926              0.01    783.43      0  01:22       0.004     0.000
  YS02001929              0.01    905.79      0  01:23       0.005     0.000
  YS02163301              0.01      0.72      0  02:28       0.000     0.000
  YS02163601              0.01      8.11      0  01:40       0.000     0.000
  YS02164001              0.01      2.34      0  01:39       0.000     0.000
  CC-storage              0.40    410.43      0  02:36       0.292     0.000
  
  
  **********************
  Storage Volume Summary
  **********************
  
  --------------------------------------------------------------------------------------------------
                         Average     Avg  Evap Exfil       Maximum     Max    Time of Max    Maximum
                          Volume    Pcnt  Pcnt  Pcnt        Volume    Pcnt     Occurrence    Outflow
  Storage Unit           1000 m3    Full  Loss  Loss       1000 m3    Full    days hr:min        LPS
  --------------------------------------------------------------------------------------------------
  CC-storage               2.646      41     0     0         6.410     100       0  02:36    1766.00
  JK-storage               0.071      24     0     0         0.212      73       0  01:45    2300.00
  
  
  ***********************
  Outfall Loading Summary
  ***********************
  
  -----------------------------------------------------------
                         Flow       Avg       Max       Total
                         Freq      Flow      Flow      Volume
  Outfall Node           Pcnt       LPS       LPS    10^6 ltr
  -----------------------------------------------------------
  CC-1                  18.44    683.00    683.00       6.255
  CC-2                  16.31    683.00    683.00       5.387
  JK-1                   7.91   1000.00   1000.00       2.968
  JK-2                   7.11   1000.00   1000.00       2.760
  WSC                  100.00    265.06    528.61       8.224
  -----------------------------------------------------------
  System                29.95   3631.06    528.61      25.595
  
  
  ********************
  Link Flow Summary
  ********************
  
  -----------------------------------------------------------------------------
                                 Maximum  Time of Max   Maximum    Max/    Max/
                                  |Flow|   Occurrence   |Veloc|    Full    Full
  Link                 Type          LPS  days hr:min     m/sec    Flow   Depth
  -----------------------------------------------------------------------------
  1                    CONDUIT    528.61     0  02:06      2.79    0.18    0.29
  WS02003060WS02003069 CONDUIT    531.05     0  02:04      1.63    0.21    0.33
  WS02003066WSF200     CONDUIT    513.68     0  02:03      2.82    0.09    0.22
  WS02003067WS02003066 CONDUIT    513.54     0  02:03      1.18    0.16    0.41
  WS02003069WS02003072 CONDUIT    529.88     0  02:04      1.35    0.26    0.38
  WS02003072WS02003073 CONDUIT    528.60     0  02:05      1.41    1.14    0.37
  WS02004401WS02004402 CONDUIT   1248.69     0  00:01      2.52    1.50    0.88
  WS02004402WS02004403 CONDUIT    929.44     0  00:01      2.21    1.34    0.90
  WS02004403WS02004404 CONDUIT    877.02     0  00:01      2.01    0.63    0.95
  WS02004404WS02004405 CONDUIT    827.31     0  00:01      2.30    8.11    0.97
  WS02004405WS02004406 CONDUIT    768.45     0  00:02      2.19    1.52    0.95
  WS02004406WS02004407 CONDUIT    525.42     0  02:11      1.03    0.23    0.62
  WS02004407WS02004409 CONDUIT    524.60     0  02:11      2.06    0.19    0.47
  WS02004409WS02004410 CONDUIT    521.03     0  02:02      1.39    0.67    0.66
  WS02004410WS02004411 CONDUIT    518.18     0  02:02      1.32    0.71    0.67
  WS02004411WS02004412 CONDUIT    516.75     0  02:02      1.30    0.73    0.68
  WS02004412WS02004413 CONDUIT    514.44     0  02:13      1.26    0.34    0.76
  WS02004413WS02003067 CONDUIT    513.24     0  02:03      1.08    0.22    0.58
  WS02006109WS02006110 CONDUIT   1446.81     0  00:00      2.88    2.78    1.00
  WS02006110WS02006113 CONDUIT    569.42     0  02:43      1.38    0.52    1.00
  WS02006111WS02006112 CONDUIT   2307.30     0  00:00      9.18    1.10    1.00
  WS02006112WS02006115 CONDUIT    953.54     0  00:00      1.24    0.56    1.00
  WS02006113WS02006111 CONDUIT   1180.41     0  00:00      2.46    1.41    1.00
  WS02006115WS02006116 CONDUIT   1264.47     0  00:00      1.74    1.62    1.00
  WS02006116WS02004401 CONDUIT   1786.04     0  00:00      2.94    2.46    0.85
  WS02006228WS02006109 CONDUIT    869.18     0  00:00      1.91    3.80    1.00
  WS02006229WS02006228 CONDUIT    560.33     0  02:05      1.11    1.86    1.00
  WS02006230WS02006229 CONDUIT    696.39     0  00:00      1.89   15.50    1.00
  WS02006231WS02006230 CONDUIT    574.55     0  02:25      1.91    8.72    1.00
  WS02006232WS02006231 CONDUIT    574.88     0  01:45      1.80    1.20    1.00
  WS02006234WS02006232 CONDUIT    574.21     0  01:45      1.49    1.16    1.00
  WS02006235WS02006234 CONDUIT    570.08     0  01:45      1.48    6.01    1.00
  WS02006238WS02006235 CONDUIT    429.43     0  02:40      1.12    0.96    1.00
  WS02006239WS02006238 CONDUIT    428.50     0  02:40      1.11    1.37    1.00
  WS02006240WS02006239 CONDUIT    430.92     0  01:30      1.12    1.36    1.00
  WS02006242WS02006240 CONDUIT    421.85     0  02:40      1.10    1.68    1.00
  WS02006243WS02006242 CONDUIT    421.58     0  02:40      1.16    0.90    1.00
  WS02006245WS02006243 CONDUIT    423.29     0  01:31      1.15    1.25    1.00
  WS02006247WS02006245 CONDUIT    424.58     0  01:31      1.10    3.37    1.00
  WS02006248WS02006247 CONDUIT    424.62     0  01:31      1.17    0.92    1.00
  WS02006249WS02006248 CONDUIT    425.57     0  01:31      1.26    2.33    1.00
  WS02006251WS02006249 CONDUIT    434.20     0  02:42      1.75    1.25    1.00
  WS02006252WS02006251 CONDUIT    410.64     0  02:42     19.66    1.51    1.00
  WS02006256WS02006235 CONDUIT    247.69     0  01:24      3.50    2.62    1.00
  WSF200WS02003060     CONDUIT    514.05     0  02:13      2.04    0.11    0.27
  YS02001580YS02001583 CONDUIT     75.76     0  01:22      0.52    0.29    1.00
  YS02001583YS02001586 CONDUIT    103.45     0  01:21      0.47    0.16    1.00
  YS02001586YS02001590 CONDUIT    318.60     0  02:11      1.27    0.56    1.00
  YS02001590YS02001593 CONDUIT    318.25     0  03:01      1.13    2.00    1.00
  YS02001593YS02001596 CONDUIT    318.13     0  03:12      1.78    0.50    1.00
  YS02001596YS02001600 CONDUIT    318.14     0  01:57      1.33    0.62    1.00
  YS02001600YS02001601 CONDUIT    318.22     0  02:28      1.13    0.55    1.00
  YS02001601YS02001602 CONDUIT    510.49     0  01:21      1.81    1.84    1.00
  YS02001602YS02001605 CONDUIT    510.59     0  01:21      1.81   10.80    1.00
  YS02001605YS02001607 CONDUIT    510.75     0  01:21      1.81    2.80    1.00
  YS02001607YS02001610 CONDUIT    511.81     0  01:21      0.68    0.49    1.00
  YS02001610YS02001613 CONDUIT    618.56     0  02:25      0.79    0.71    1.00
  YS02001613YS02001616 CONDUIT    618.37     0  02:25      0.79    0.53    1.00
  YS02001616YS02001619 CONDUIT    620.31     0  02:28      0.79    1.08    1.00
  YS02001619YS02001622 CONDUIT   1054.02     0  02:38      1.53    1.55    1.00
  YS02001622YS02001625 CONDUIT   1053.73     0  02:36      1.34    0.56    1.00
  YS02001625YS02001629 CONDUIT    901.27     0  01:28      1.15    0.43    1.00
  YS02001629YS02163301 CONDUIT   1139.08     0  02:39      1.45    1.40    1.00
  YS02001633YS02163601 CONDUIT   1266.07     0  01:29      1.61    1.33    1.00
  YS02001641YS02001644 CONDUIT   1264.16     0  01:29      1.61    4.09    1.00
  YS02001644YS02001647 CONDUIT   1589.81     0  01:29      2.09    0.93    1.00
  YS02001647YS02001649 CONDUIT   1596.34     0  01:30      2.30    0.84    1.00
  YS02001649YS02001757 CONDUIT   1799.48     0  01:32      2.46    1.09    1.00
  YS02001652YS02001649 CONDUIT   2429.37     0  02:32      3.09    1.20    1.00
  YS02001655YS02001652 CONDUIT   2429.30     0  02:37      3.09    1.18    1.00
  YS02001658YS02001655 CONDUIT   2731.29     0  02:39      3.48    1.16    1.00
  YS02001661YS02001658 CONDUIT   2783.74     0  02:36      3.54    1.09    1.00
  YS02001664YS02001661 CONDUIT   2783.82     0  02:36      3.54    0.87    1.00
  YS02001745YS02001748 CONDUIT   3063.72     0  02:36      3.90    1.18    1.00
  YS02001748YS02001751 CONDUIT   2353.93     0  02:35      3.00    1.19    1.00
  YS02001751YS02001754 CONDUIT   2354.28     0  02:36      3.00    1.13    1.00
  YS02001754YS02001757 CONDUIT   2353.89     0  02:35      3.00    0.95    1.00
  YS02001757CaochengTiaoxuchi CONDUIT   2722.40     0  01:48      3.47    1.18    1.00
  YS02001759YS02001757 CONDUIT   1420.84     0  02:40      1.81    1.01    1.00
  YS02001762YS02001759 CONDUIT    724.13     0  02:39      0.92    0.83    1.00
  YS02001765YS02001762 CONDUIT    723.40     0  02:39      0.92    0.68    1.00
  YS02001767YS02001765 CONDUIT    723.71     0  02:36      0.92    0.91    1.00
  YS02001770YS02001767 CONDUIT    723.63     0  02:36      0.92    2.87    1.00
  YS02001774YS02001770 CONDUIT    852.17     0  02:32      1.09    0.54    1.00
  YS02001779YS02001774 CONDUIT    851.79     0  02:32      1.08    0.43    1.00
  YS02001783YS02001784 CONDUIT   1209.68     0  01:27      2.41    1.67    1.00
  YS02001784YS02001785 CONDUIT   1209.71     0  01:27      2.41    2.82    1.00
  YS02001786YS02001788 CONDUIT   1210.17     0  01:27      2.55    2.33    0.90
  YS02001788YS02001790 CONDUIT   1212.76     0  01:28      2.77    0.89    0.84
  YS02001790YS02001791 CONDUIT   1293.52     0  01:32      3.44    1.41    0.71
  YS02001791YS02001793 CONDUIT   1251.97     0  01:35      6.77    0.54    0.44
  YS02001793JiankangQianchi CONDUIT   1298.25     0  01:36      2.60    0.10    0.65
  YS02001882YS02001884 CONDUIT    137.81     0  01:21      0.28    0.16    1.00
  YS02001884YS02001887 CONDUIT    153.66     0  01:21      0.23    0.20    1.00
  YS02001887YS02001890 CONDUIT   1772.72     0  01:26      2.26    3.03    1.00
  YS02001890YS02001895 CONDUIT    603.62     0  01:22      0.77    0.28    1.00
  YS02001895YS02001898 CONDUIT    603.26     0  01:22      0.77    1.05    1.00
  YS02001898YS02001901 CONDUIT    601.52     0  01:22      0.77    0.39    1.00
  YS02001901YS02001904 CONDUIT    600.77     0  01:22      0.76    0.93    1.00
  YS02001904YS02001907 CONDUIT    599.92     0  01:22      0.76    0.21    1.00
  YS02001907YS02006553 CONDUIT   1141.80     0  01:27      1.27    1.34    1.00
  YS02001910YS02001907 CONDUIT   1993.01     0  01:37      2.54    1.12    1.00
  YS02001915YS02001910 CONDUIT   1993.16     0  01:34      2.54    0.99    1.00
  YS02001918YS02001915 CONDUIT    978.47     0  01:29      1.25    0.54    1.00
  YS02001920YS02001918 CONDUIT    977.89     0  01:29      1.25    0.95    1.00
  YS02001923YS02001920 CONDUIT    977.28     0  01:29      1.24    0.44    1.00
  YS02001926YS02001923 CONDUIT   1172.82     0  01:22      1.65    1.67    1.00
  YS02001929YS02001926 CONDUIT    975.82     0  01:29      1.28    0.46    1.00
  YS02006553YS02006556 CONDUIT   1141.16     0  01:27      1.45    0.98    1.00
  YS02006556YS02006558 CONDUIT   1140.05     0  01:27      1.45    0.90    1.00
  YS02006558YS02006561 CONDUIT   1209.73     0  01:27      4.28    2.67    1.00
  YS02006561YS02001783 CONDUIT   1209.67     0  01:27      2.41    0.63    1.00
  YS02163301YS02001633 CONDUIT   1138.97     0  02:38      1.45    1.07    1.00
  YS02163601YS02164001 CONDUIT   1265.86     0  01:29      1.61    1.12    1.00
  YS02164001YS02001641 CONDUIT   1264.42     0  01:29      1.61    1.73    1.00
  CC-R1                PUMP       683.00     0  01:32              1.00
  CC-R2                PUMP       683.00     0  01:38              1.00
  CC-S1                PUMP       200.00     0  00:05              1.00
  CC-S2                PUMP       200.00     0  01:27              1.00
  JK-R1                PUMP      1000.00     0  00:05              1.00
  JK-R2                PUMP      1000.00     0  00:05              1.00
  JK-S                 PUMP       300.00     0  01:23              1.00
  
  
  ***************************
  Flow Classification Summary
  ***************************
  
  -------------------------------------------------------------------------------------
                      Adjusted    ---------- Fraction of Time in Flow Class ---------- 
                       /Actual         Up    Down  Sub   Sup   Up    Down  Norm  Inlet 
  Conduit               Length    Dry  Dry   Dry   Crit  Crit  Crit  Crit  Ltd   Ctrl  
  -------------------------------------------------------------------------------------
  1                       1.00   0.00  0.00  0.00  0.00  1.00  0.00  0.00  0.17  0.00
  WS02003060WS02003069    1.00   0.00  0.00  0.00  0.99  0.01  0.00  0.00  0.53  0.00
  WS02003066WSF200        1.00   0.02  0.00  0.00  0.00  0.98  0.00  0.00  0.92  0.00
  WS02003067WS02003066    1.00   0.01  0.01  0.00  0.98  0.00  0.00  0.00  0.00  0.00
  WS02003069WS02003072    1.00   0.00  0.00  0.00  1.00  0.00  0.00  0.00  0.60  0.00
  WS02003072WS02003073    1.00   0.00  0.00  0.00  0.00  0.00  0.00  1.00  0.00  0.00
  WS02004401WS02004402    1.00   0.00  0.00  0.00  1.00  0.00  0.00  0.00  0.00  0.00
  WS02004402WS02004403    1.00   0.00  0.00  0.00  1.00  0.00  0.00  0.00  0.00  0.00
  WS02004403WS02004404    1.00   0.00  0.00  0.00  1.00  0.00  0.00  0.00  0.00  0.00
  WS02004404WS02004405    1.00   0.00  0.00  0.00  1.00  0.00  0.00  0.00  0.02  0.00
  WS02004405WS02004406    1.00   0.00  0.00  0.00  1.00  0.00  0.00  0.00  0.00  0.00
  WS02004406WS02004407    1.00   0.00  0.00  0.00  1.00  0.00  0.00  0.00  0.00  0.00
  WS02004407WS02004409    1.00   0.00  0.00  0.00  1.00  0.00  0.00  0.00  0.99  0.00
  WS02004409WS02004410    1.00   0.00  0.00  0.00  1.00  0.00  0.00  0.00  0.00  0.00
  WS02004410WS02004411    1.00   0.00  0.00  0.00  1.00  0.00  0.00  0.00  0.00  0.00
  WS02004411WS02004412    1.00   0.00  0.00  0.00  1.00  0.00  0.00  0.00  0.00  0.00
  WS02004412WS02004413    1.00   0.00  0.00  0.00  0.99  0.00  0.00  0.00  0.00  0.00
  WS02004413WS02003067    1.00   0.00  0.01  0.00  0.00  0.00  0.99  0.00  0.00  0.00
  WS02006109WS02006110    1.00   0.00  0.00  0.00  1.00  0.00  0.00  0.00  0.00  0.00
  WS02006110WS02006113    1.00   0.00  0.00  0.00  1.00  0.00  0.00  0.00  0.00  0.00
  WS02006111WS02006112    1.00   0.00  0.00  0.00  1.00  0.00  0.00  0.00  1.00  0.00
  WS02006112WS02006115    1.00   0.00  0.00  0.00  1.00  0.00  0.00  0.00  0.00  0.00
  WS02006113WS02006111    1.00   0.00  0.00  0.00  0.00  1.00  0.00  0.00  0.22  0.00
  WS02006115WS02006116    1.00   0.00  0.00  0.00  1.00  0.00  0.00  0.00  0.00  0.00
  WS02006116WS02004401    1.00   0.00  0.00  0.00  1.00  0.00  0.00  0.00  0.00  0.00
  WS02006228WS02006109    1.00   0.00  0.00  0.00  1.00  0.00  0.00  0.00  0.00  0.00
  WS02006229WS02006228    1.00   0.00  0.00  0.00  1.00  0.00  0.00  0.00  0.00  0.00
  WS02006230WS02006229    1.00   0.00  0.00  0.00  1.00  0.00  0.00  0.00  0.00  0.00
  WS02006231WS02006230    1.00   0.00  0.00  0.00  0.24  0.00  0.76  0.00  0.00  0.00
  WS02006232WS02006231    1.00   0.00  0.00  0.00  1.00  0.00  0.00  0.00  0.00  0.00
  WS02006234WS02006232    1.00   0.00  0.00  0.00  1.00  0.00  0.00  0.00  0.00  0.00
  WS02006235WS02006234    1.00   0.00  0.00  0.00  0.99  0.00  0.01  0.00  0.00  0.00
  WS02006238WS02006235    1.00   0.00  0.00  0.00  1.00  0.00  0.00  0.00  0.00  0.00
  WS02006239WS02006238    1.00   0.00  0.00  0.00  1.00  0.00  0.00  0.00  0.00  0.00
  WS02006240WS02006239    1.00   0.01  0.00  0.00  0.95  0.00  0.00  0.03  0.00  0.00
  WS02006242WS02006240    1.00   0.01  0.00  0.00  0.98  0.00  0.01  0.00  0.00  0.00
  WS02006243WS02006242    1.00   0.01  0.00  0.00  0.98  0.00  0.00  0.01  0.14  0.00
  WS02006245WS02006243    1.00   0.01  0.00  0.00  0.98  0.00  0.00  0.02  0.00  0.00
  WS02006247WS02006245    1.00   0.00  0.00  0.00  0.99  0.00  0.00  0.01  0.00  0.00
  WS02006248WS02006247    1.00   0.00  0.00  0.00  0.99  0.00  0.00  0.01  0.15  0.00
  WS02006249WS02006248    1.00   0.00  0.00  0.00  0.95  0.00  0.04  0.00  0.00  0.00
  WS02006251WS02006249    1.00   0.00  0.00  0.00  1.00  0.00  0.00  0.00  0.13  0.00
  WS02006252WS02006251    1.00   0.00  0.03  0.00  0.05  0.00  0.92  0.00  0.00  0.00
  WS02006256WS02006235    1.00   0.00  0.00  0.00  1.00  0.00  0.00  0.00  0.00  0.00
  WSF200WS02003060        1.00   0.00  0.02  0.00  0.02  0.96  0.00  0.00  0.34  0.00
  YS02001580YS02001583    1.00   0.26  0.52  0.00  0.22  0.00  0.00  0.00  0.58  0.00
  YS02001583YS02001586    1.00   0.37  0.38  0.00  0.25  0.00  0.00  0.00  0.58  0.00
  YS02001586YS02001590    1.00   0.19  0.00  0.00  0.47  0.06  0.00  0.28  0.31  0.00
  YS02001590YS02001593    1.00   0.19  0.00  0.00  0.19  0.00  0.61  0.00  0.00  0.00
  YS02001593YS02001596    1.00   0.20  0.00  0.00  0.21  0.00  0.00  0.59  0.01  0.00
  YS02001596YS02001600    1.00   0.20  0.00  0.00  0.24  0.01  0.00  0.56  0.02  0.00
  YS02001600YS02001601    1.00   0.19  0.01  0.00  0.80  0.00  0.00  0.00  0.51  0.00
  YS02001601YS02001602    1.00   0.19  0.00  0.00  0.81  0.00  0.00  0.00  0.00  0.00
  YS02001602YS02001605    1.00   0.19  0.00  0.00  0.80  0.00  0.00  0.00  0.00  0.00
  YS02001605YS02001607    1.00   0.20  0.00  0.00  0.80  0.00  0.00  0.00  0.00  0.00
  YS02001607YS02001610    1.00   0.20  0.00  0.00  0.80  0.00  0.00  0.00  0.00  0.00
  YS02001610YS02001613    1.00   0.19  0.00  0.00  0.81  0.00  0.00  0.00  0.00  0.00
  YS02001613YS02001616    1.00   0.19  0.00  0.00  0.81  0.00  0.00  0.00  0.00  0.00
  YS02001616YS02001619    1.00   0.19  0.00  0.00  0.81  0.00  0.00  0.00  0.00  0.00
  YS02001619YS02001622    1.00   0.19  0.00  0.00  0.80  0.01  0.00  0.00  0.23  0.00
  YS02001622YS02001625    1.00   0.19  0.00  0.00  0.80  0.01  0.00  0.00  0.01  0.00
  YS02001625YS02001629    1.00   0.19  0.03  0.00  0.22  0.00  0.56  0.00  0.00  0.00
  YS02001629YS02163301    1.00   0.20  0.01  0.00  0.79  0.00  0.00  0.00  0.00  0.00
  YS02001633YS02163601    1.00   0.19  0.00  0.00  0.81  0.00  0.00  0.00  0.00  0.00
  YS02001641YS02001644    1.00   0.19  0.00  0.00  0.81  0.00  0.00  0.00  0.00  0.00
  YS02001644YS02001647    1.00   0.19  0.02  0.00  0.79  0.00  0.00  0.00  0.00  0.00
  YS02001647YS02001649    1.00   0.20  0.01  0.00  0.51  0.28  0.00  0.00  0.52  0.00
  YS02001649YS02001757    1.00   0.00  0.20  0.00  0.60  0.20  0.00  0.00  0.13  0.00
  YS02001652YS02001649    1.00   0.20  0.00  0.00  0.78  0.02  0.00  0.00  0.49  0.00
  YS02001655YS02001652    1.00   0.20  0.00  0.00  0.23  0.00  0.00  0.57  0.04  0.00
  YS02001658YS02001655    1.00   0.20  0.00  0.00  0.72  0.08  0.00  0.00  0.55  0.00
  YS02001661YS02001658    1.00   0.20  0.00  0.00  0.57  0.23  0.00  0.00  0.57  0.00
  YS02001664YS02001661    1.00   0.19  0.00  0.00  0.72  0.09  0.00  0.00  0.72  0.00
  YS02001745YS02001748    1.00   0.19  0.00  0.00  0.16  0.00  0.00  0.64  0.04  0.00
  YS02001748YS02001751    1.00   0.19  0.00  0.00  0.72  0.09  0.00  0.00  0.52  0.00
  YS02001751YS02001754    1.00   0.19  0.00  0.00  0.22  0.01  0.00  0.58  0.04  0.00
  YS02001754YS02001757    1.00   0.00  0.19  0.00  0.79  0.02  0.00  0.00  0.51  0.00
  YS02001757CaochengTiaoxuchi    1.00   0.00  0.00  0.00  0.96  0.04  0.00  0.00  0.48  0.00
  YS02001759YS02001757    1.00   0.00  0.19  0.00  0.79  0.02  0.00  0.00  0.37  0.00
  YS02001762YS02001759    1.00   0.19  0.01  0.00  0.80  0.00  0.00  0.00  0.02  0.00
  YS02001765YS02001762    1.00   0.19  0.00  0.00  0.81  0.00  0.00  0.00  0.43  0.00
  YS02001767YS02001765    1.00   0.19  0.00  0.00  0.81  0.00  0.00  0.00  0.01  0.00
  YS02001770YS02001767    1.00   0.19  0.00  0.00  0.81  0.00  0.00  0.00  0.00  0.00
  YS02001774YS02001770    1.00   0.20  0.00  0.00  0.65  0.01  0.15  0.00  0.00  0.00
  YS02001779YS02001774    1.00   0.20  0.49  0.00  0.32  0.00  0.00  0.00  0.50  0.00
  YS02001783YS02001784    1.00   0.24  0.00  0.00  0.76  0.00  0.00  0.00  0.54  0.00
  YS02001784YS02001785    1.00   0.24  0.00  0.00  0.76  0.00  0.00  0.00  0.36  0.00
  YS02001786YS02001788    1.00   0.24  0.00  0.00  0.65  0.11  0.00  0.00  0.00  0.00
  YS02001788YS02001790    1.00   0.24  0.00  0.00  0.24  0.52  0.00  0.00  0.60  0.00
  YS02001790YS02001791    1.00   0.24  0.00  0.00  0.00  0.75  0.00  0.00  0.14  0.00
  YS02001791YS02001793    1.00   0.25  0.00  0.00  0.00  0.75  0.00  0.00  0.01  0.00
  YS02001793JiankangQianchi    1.00   0.00  0.25  0.00  0.68  0.07  0.00  0.00  0.81  0.00
  YS02001882YS02001884    1.00   0.22  0.00  0.00  0.78  0.00  0.00  0.00  0.00  0.00
  YS02001884YS02001887    1.00   0.20  0.01  0.00  0.79  0.00  0.00  0.00  0.00  0.00
  YS02001887YS02001890    1.00   0.19  0.00  0.00  0.79  0.00  0.02  0.00  0.00  0.00
  YS02001890YS02001895    1.00   0.19  0.03  0.00  0.78  0.00  0.00  0.00  0.00  0.00
  YS02001895YS02001898    1.00   0.22  0.00  0.00  0.76  0.00  0.02  0.00  0.00  0.00
  YS02001898YS02001901    1.00   0.22  0.00  0.00  0.77  0.01  0.00  0.00  0.00  0.00
  YS02001901YS02001904    1.00   0.23  0.00  0.00  0.77  0.00  0.00  0.00  0.00  0.00
  YS02001904YS02001907    1.00   0.19  0.04  0.00  0.77  0.00  0.00  0.00  0.00  0.00
  YS02001907YS02006553    1.00   0.19  0.02  0.00  0.79  0.00  0.00  0.00  0.00  0.00
  YS02001910YS02001907    1.00   0.19  0.00  0.00  0.79  0.00  0.00  0.02  0.01  0.00
  YS02001915YS02001910    1.00   0.19  0.00  0.00  0.77  0.04  0.00  0.00  0.01  0.00
  YS02001918YS02001915    1.00   0.19  0.04  0.00  0.77  0.00  0.00  0.00  0.63  0.00
  YS02001920YS02001918    1.00   0.21  0.02  0.00  0.77  0.00  0.00  0.00  0.00  0.00
  YS02001923YS02001920    1.00   0.21  0.00  0.00  0.79  0.01  0.00  0.00  0.71  0.00
  YS02001926YS02001923    1.00   0.19  0.02  0.00  0.10  0.00  0.70  0.00  0.00  0.00
  YS02001929YS02001926    1.00   0.19  0.00  0.00  0.81  0.00  0.00  0.00  0.75  0.00
  YS02006553YS02006556    1.00   0.20  0.00  0.00  0.80  0.00  0.00  0.00  0.00  0.00
  YS02006556YS02006558    1.00   0.19  0.01  0.00  0.80  0.00  0.00  0.00  0.00  0.00
  YS02006558YS02006561    1.00   0.24  0.00  0.00  0.09  0.67  0.00  0.00  0.13  0.00
  YS02006561YS02001783    1.00   0.24  0.00  0.00  0.15  0.61  0.00  0.00  0.62  0.00
  YS02163301YS02001633    1.00   0.19  0.01  0.00  0.80  0.00  0.00  0.00  0.00  0.00
  YS02163601YS02164001    1.00   0.19  0.01  0.00  0.80  0.00  0.00  0.00  0.00  0.00
  YS02164001YS02001641    1.00   0.19  0.01  0.00  0.80  0.00  0.00  0.00  0.00  0.00
  
  
  *************************
  Conduit Surcharge Summary
  *************************
  
  ----------------------------------------------------------------------------
                                                           Hours        Hours 
                         --------- Hours Full --------   Above Full   Capacity
  Conduit                Both Ends  Upstream  Dnstream   Normal Flow   Limited
  ----------------------------------------------------------------------------
  WS02003072WS02003073        0.01      0.01      0.01      0.98         0.01
  WS02004401WS02004402        0.01      0.01      0.01      0.01         0.01
  WS02004402WS02004403        0.01      0.01      0.01      0.02         0.01
  WS02004404WS02004405        0.01      0.01      0.01      6.75         0.01
  WS02004405WS02004406        0.01      0.01      0.01      0.32         0.01
  WS02006109WS02006110        0.39      0.39      3.07      0.51         0.01
  WS02006110WS02006113        0.01      0.01      3.04      0.01         0.01
  WS02006111WS02006112        0.01      0.01      3.26      0.01         0.01
  WS02006112WS02006115        0.01      0.01      0.56      0.01         0.01
  WS02006113WS02006111        0.01      0.01      0.01      0.01         0.01
  WS02006115WS02006116        0.01      0.01      0.01      0.01         0.01
  WS02006116WS02004401        0.01      0.01      0.01      0.02         0.01
  WS02006228WS02006109        3.01      3.06      3.02      3.31         3.01
  WS02006229WS02006228        3.00      3.03      3.01      3.19         3.00
  WS02006230WS02006229        3.10      3.17      3.12      6.83         3.10
  WS02006231WS02006230        0.41      0.41      0.55      6.70         0.01
  WS02006232WS02006231        0.51      0.51      3.06      0.56         0.01
  WS02006234WS02006232        2.95      2.95      3.06      0.55         0.55
  WS02006235WS02006234        0.73      0.73      2.98      6.65         0.01
  WS02006238WS02006235        2.99      2.99      3.06      0.01         0.01
  WS02006239WS02006238        3.01      3.03      3.01      3.04         2.85
  WS02006240WS02006239        2.99      3.02      2.99      3.03         2.78
  WS02006242WS02006240        3.01      3.01      3.04      3.09         0.01
  WS02006243WS02006242        3.02      3.02      3.04      0.01         0.04
  WS02006245WS02006243        3.01      3.01      3.01      2.55         2.63
  WS02006247WS02006245        3.01      3.01      3.01      6.65         3.00
  WS02006248WS02006247        3.01      3.01      3.01      0.01         0.04
  WS02006249WS02006248        3.00      3.00      3.00      6.64         0.01
  WS02006251WS02006249        3.00      3.00      3.00      3.02         2.94
  WS02006252WS02006251        3.04      3.04      3.06      3.04         0.01
  WS02006256WS02006235        6.65      6.67      7.83      0.67         0.01
  YS02001580YS02001583        1.84      1.84      1.88      0.01         0.01
  YS02001583YS02001586        1.84      1.84      1.95      0.01         0.01
  YS02001586YS02001590        1.96      1.96      2.03      0.01         0.01
  YS02001590YS02001593        2.03      2.03      2.05      2.06         0.01
  YS02001593YS02001596        2.04      2.04      2.13      0.01         0.01
  YS02001596YS02001600        2.17      2.17      2.24      0.01         0.01
  YS02001600YS02001601        2.29      2.29      2.47      0.01         0.01
  YS02001601YS02001602        2.41      2.41      2.49      2.21         0.01
  YS02001602YS02001605        2.38      2.38      2.41      3.05         0.01
  YS02001605YS02001607        2.35      2.38      2.37      2.36         2.27
  YS02001607YS02001610        2.04      2.04      2.06      0.01         0.01
  YS02001610YS02001613        2.04      2.04      2.06      0.01         0.01
  YS02001613YS02001616        2.00      2.00      2.04      0.01         0.01
  YS02001616YS02001619        1.99      1.99      2.00      0.74         0.61
  YS02001619YS02001622        1.98      1.99      1.99      1.94         1.86
  YS02001622YS02001625        1.99      1.99      2.16      0.01         0.01
  YS02001625YS02001629        1.92      1.92      2.16      0.01         0.01
  YS02001629YS02163301        2.17      2.17      2.19      0.61         0.16
  YS02001633YS02163601        2.22      2.22      2.26      0.25         0.27
  YS02001641YS02001644        2.17      2.19      2.17      2.52         2.10
  YS02001644YS02001647        1.92      1.92      2.17      0.01         0.01
  YS02001647YS02001649        1.92      1.92      2.06      0.01         0.01
  YS02001649YS02001757        2.06      2.06      2.14      0.22         0.13
  YS02001652YS02001649        1.89      1.89      2.06      0.26         0.26
  YS02001655YS02001652        1.69      1.69      1.87      0.26         0.26
  YS02001658YS02001655        1.35      1.35      1.69      0.21         0.21
  YS02001661YS02001658        0.73      0.73      1.35      0.19         0.19
  YS02001664YS02001661        0.41      0.41      0.88      0.01         0.01
  YS02001745YS02001748        0.44      0.44      1.22      0.05         0.05
  YS02001748YS02001751        1.31      1.31      1.58      0.11         0.11
  YS02001751YS02001754        1.58      1.58      1.81      0.10         0.10
  YS02001754YS02001757        1.85      1.85      2.14      0.01         0.01
  YS02001757CaochengTiaoxuchi        2.14      2.14      3.04      0.99         0.93
  YS02001759YS02001757        2.05      2.05      2.14      0.07         0.02
  YS02001762YS02001759        2.02      2.02      2.05      0.01         0.02
  YS02001765YS02001762        1.98      1.98      2.02      0.01         0.01
  YS02001767YS02001765        1.95      1.95      1.98      0.01         0.02
  YS02001770YS02001767        1.95      1.95      1.95      1.59         0.94
  YS02001774YS02001770        1.93      1.93      2.00      0.01         0.01
  YS02001779YS02001774        1.79      1.79      2.00      0.01         0.01
  YS02001783YS02001784        1.05      1.09      1.05      1.30         1.05
  YS02001784YS02001785        0.90      1.05      0.90      1.74         0.90
  YS02001786YS02001788        0.01      0.90      0.01      1.55         0.01
  YS02001790YS02001791        0.01      0.01      0.01      1.03         0.01
  YS02001793JiankangQianchi        0.01      0.01      6.71      0.01         0.01
  YS02001882YS02001884        1.00      1.00      1.01      0.01         0.01
  YS02001884YS02001887        1.05      1.05      1.07      0.01         0.01
  YS02001887YS02001890        1.09      1.09      1.11      0.36         0.01
  YS02001890YS02001895        0.98      0.98      1.13      0.01         0.01
  YS02001895YS02001898        0.97      0.97      0.98      0.01         0.01
  YS02001898YS02001901        0.98      0.98      1.05      0.01         0.01
  YS02001901YS02001904        1.03      1.03      1.05      0.01         0.01
  YS02001904YS02001907        1.03      1.03      1.52      0.01         0.01
  YS02001907YS02006553        1.74      1.74      1.77      0.09         0.10
  YS02001910YS02001907        1.13      1.13      1.43      0.26         0.27
  YS02001915YS02001910        1.00      1.00      1.13      0.01         0.02
  YS02001918YS02001915        0.87      0.87      1.00      0.01         0.01
  YS02001920YS02001918        0.87      0.87      0.90      0.01         0.01
  YS02001923YS02001920        0.81      0.81      0.90      0.01         0.01
  YS02001926YS02001923        0.39      0.39      0.42      0.21         0.01
  YS02001929YS02001926        0.28      0.28      0.42      0.01         0.01
  YS02006553YS02006556        1.26      1.26      1.51      0.01         0.01
  YS02006556YS02006558        1.33      1.33      1.56      0.01         0.01
  YS02006558YS02006561        0.92      1.24      0.92      1.69         0.92
  YS02006561YS02001783        0.83      0.83      1.09      0.01         0.01
  YS02163301YS02001633        2.19      2.19      2.24      0.36         0.01
  YS02163601YS02164001        2.19      2.19      2.26      0.17         0.01
  YS02164001YS02001641        2.18      2.19      2.19      1.05         1.03
  
  
  ***************
  Pumping Summary
  ***************
  
  ---------------------------------------------------------------------------------------------------------
                                                  Min       Avg       Max     Total     Power    % Time Off
                        Percent   Number of      Flow      Flow      Flow    Volume     Usage    Pump Curve
  Pump                 Utilized   Start-Ups       LPS       LPS       LPS  10^6 ltr     Kw-hr    Low   High
  ---------------------------------------------------------------------------------------------------------
  CC-R1                   31.80           1      0.00    683.00    683.00     6.255    125.88    0.0   47.7
  CC-R2                   27.38           1      0.00    683.00    683.00     5.387    109.85    0.0   55.3
  CC-S1                   83.75          15      0.00    200.00    200.00     4.824     26.41    0.0   18.1
  CC-S2                   38.01           1      0.00    200.00    200.00     2.189      9.43    0.0   39.9
  JK-R1                   10.32          55      0.00   1000.00   1000.00     2.973     25.94    0.0    0.0
  JK-R2                    9.60          55      0.00   1000.00   1000.00     2.765     23.45    0.0    0.0
  JK-S                     8.35           8      0.00    300.00    300.00     0.721     11.64    0.0    0.0
  

  Analysis begun on:  Fri Sep  8 22:11:29 2023
  Analysis ended on:  Fri Sep  8 22:11:44 2023
  Total elapsed time: 00:00:15