
  OWA STORM WATER MANAGEMENT MODEL - VERSION v5.2.3 (OWA 2023-06-06)
  ------------------------------------------------------------

  WARNING 04: minimum elevation drop used for Conduit WS02004404WS02004405
  WARNING 03: negative offset ignored for Link YS02001904YS02001907
  
  ****************
  Analysis Options
  ****************
  Flow Units ............... LPS
  Process Models:
    Rainfall/Runoff ........ YES
    RDII ................... NO
    Snowmelt ............... NO
    Groundwater ............ NO
    Flow Routing ........... YES
    Ponding Allowed ........ NO
    Water Quality .......... NO
  Infiltration Method ...... HORTON
  Flow Routing Method ...... DYNWAVE
  Surcharge Method ......... EXTRAN
  Starting Date ............ 08/28/2015 08:00:00
  Ending Date .............. 08/28/2015 16:00:00
  Antecedent Dry Days ...... 8.0
  Report Time Step ......... 00:01:00
  Wet Time Step ............ 00:01:00
  Dry Time Step ............ 00:01:00
  Routing Time Step ........ 30.00 sec
  Variable Time Step ....... YES
  Maximum Trials ........... 8
  Number of Threads ........ 2
  Head Tolerance ........... 0.001500 m
  
  
  **************************        Volume         Depth
  Runoff Quantity Continuity     hectare-m            mm
  **************************     ---------       -------
  Total Precipitation ......         3.865       116.510
  Evaporation Loss .........         0.000         0.000
  Infiltration Loss ........         0.105         3.168
  Surface Runoff ...........         3.727       112.372
  Final Storage ............         0.033         0.997
  Continuity Error (%) .....        -0.023
  
  
  **************************        Volume        Volume
  Flow Routing Continuity        hectare-m      10^6 ltr
  **************************     ---------     ---------
  Dry Weather Inflow .......         0.025         0.251
  Wet Weather Inflow .......         3.727        37.273
  Groundwater Inflow .......         0.000         0.000
  RDII Inflow ..............         0.000         0.000
  External Inflow ..........         0.083         0.834
  External Outflow .........         1.993        19.926
  Flooding Loss ............         1.935        19.354
  Evaporation Loss .........         0.000         0.000
  Exfiltration Loss ........         0.000         0.000
  Initial Stored Volume ....         0.243         2.431
  Final Stored Volume ......         0.182         1.818
  Continuity Error (%) .....        -0.759
  
  
  *************************
  Highest Continuity Errors
  *************************
  Node YS02001884 (4.79%)
  Node YS02001583 (-4.35%)
  Node WS02006256 (-2.19%)
  
  
  ***************************
  Time-Step Critical Elements
  ***************************
  Link WS02006252WS02006251 (32.33%)
  Link WS02006238WS02006235 (19.54%)
  Link WS02004404WS02004405 (14.75%)
  Link YS02001791YS02001793 (8.27%)
  Link WS02006235WS02006234 (8.02%)
  
  
  ********************************
  Highest Flow Instability Indexes
  ********************************
  Link WS02006113WS02006111 (41)
  Link WS02006238WS02006235 (26)
  Link WS02006252WS02006251 (25)
  Link WS02006256WS02006235 (23)
  Link YS02001607YS02001610 (22)
  
  
  *********************************
  Most Frequent Nonconverging Nodes
  *********************************
  Node CC-1 (17.37%)
  Node CC-2 (17.37%)
  Node JK-1 (17.37%)
  Node JK-2 (17.37%)
  Node WSC (17.37%)
  
  
  *************************
  Routing Time Step Summary
  *************************
  Minimum Time Step           :     0.00 sec
  Average Time Step           :     2.40 sec
  Maximum Time Step           :    30.00 sec
  % of Time in Steady State   :     0.00
  Average Iterations per Step :     3.77
  % of Steps Not Converging   :    17.37
  Time Step Frequencies       :
     30.000 - 13.228 sec      :     0.01 %
     13.228 -  5.833 sec      :     8.80 %
      5.833 -  2.572 sec      :    27.74 %
      2.572 -  1.134 sec      :    27.17 %
      1.134 -  0.500 sec      :    36.28 %
  
  
  ***************************
  Subcatchment Runoff Summary
  ***************************
  
  ------------------------------------------------------------------------------------------------------------------------------
                            Total      Total      Total      Total     Imperv       Perv      Total       Total     Peak  Runoff
                           Precip      Runon       Evap      Infil     Runoff     Runoff     Runoff      Runoff   Runoff   Coeff
  Subcatchment                 mm         mm         mm         mm         mm         mm         mm    10^6 ltr      LPS
  ------------------------------------------------------------------------------------------------------------------------------
  sub60                    139.36       0.00       0.00       1.91     121.46      14.82     136.27        1.79  1210.07   0.978
  sub61                    139.36       0.00       0.00       2.78     114.56      20.92     135.48        2.49  1682.63   0.972
  sub62                    139.36       0.00       0.00       1.27     126.94       9.88     136.82        3.75  2393.15   0.982
  sub63                    139.36       0.00       0.00       5.13      97.99      35.30     133.29        3.03  1934.11   0.956
  sub64                    139.36       0.00       0.00       2.59     117.27      18.32     135.58        3.26  1974.80   0.973
  sub65                    139.36       0.00       0.00       2.24     120.01      15.88     135.88        3.74  2217.99   0.975
  sub66                    139.36       0.00       0.00       6.35      97.88      34.07     131.95        6.15  3035.17   0.947
  sub67                     51.25       0.00       0.00       1.13      45.90       2.97      48.87        0.91   646.57   0.954
  sub68                     51.25       0.00       0.00       2.12      42.88       5.06      47.94        1.32   854.51   0.935
  sub69                    139.36       0.00       0.00       2.08     118.36      18.82     137.18        5.08  2951.25   0.984
  sub70                    139.36       0.00       0.00       6.95      91.82      40.43     132.25        3.82  1709.70   0.949
  sub71                     51.25       0.00       0.00       1.21      45.82       2.89      48.71        1.27   736.69   0.951
  sub72                     51.25       0.00       0.00       1.07      46.25       2.51      48.77        0.67   355.38   0.952
  
  
  ******************
  Node Depth Summary
  ******************
  
  ---------------------------------------------------------------------------------
                                 Average  Maximum  Maximum  Time of Max    Reported
                                   Depth    Depth      HGL   Occurrence   Max Depth
  Node                 Type       Meters   Meters   Meters  days hr:min      Meters
  ---------------------------------------------------------------------------------
  WS02003060           JUNCTION     0.22     0.38     5.32     0  02:43        0.38
  WS02003066           JUNCTION     0.19     0.30     5.85     0  02:42        0.30
  WS02003067           JUNCTION     0.49     0.70     6.02     0  02:42        0.70
  WS02003069           JUNCTION     0.24     0.43     5.01     0  02:43        0.43
  WS02003072           JUNCTION     0.30     0.50     4.87     0  02:44        0.50
  WS02003073           JUNCTION     0.17     0.30     4.36     0  02:44        0.30
  WS02004401           JUNCTION     0.58     0.85     6.85     0  02:40        0.85
  WS02004402           JUNCTION     0.61     0.88     6.84     0  02:40        0.88
  WS02004403           JUNCTION     0.64     0.89     6.82     0  02:40        0.89
  WS02004404           JUNCTION     0.71     0.96     6.81     0  02:40        0.96
  WS02004405           JUNCTION     0.71     0.96     6.81     0  02:40        0.96
  WS02004406           JUNCTION     0.72     0.96     6.79     0  02:40        0.96
  WS02004407           JUNCTION     0.17     0.30     6.61     0  02:40        0.30
  WS02004409           JUNCTION     0.37     0.67     6.44     0  02:41        0.67
  WS02004410           JUNCTION     0.40     0.68     6.40     0  02:41        0.68
  WS02004411           JUNCTION     0.42     0.69     6.37     0  02:41        0.69
  WS02004412           JUNCTION     0.44     0.70     6.34     0  02:41        0.70
  WS02004413           JUNCTION     0.61     0.86     6.33     0  02:42        0.86
  WS02006109           JUNCTION     0.64     1.20     7.82     0  01:56        1.20
  WS02006110           JUNCTION     0.64     1.15     7.73     0  02:21        1.05
  WS02006111           JUNCTION     0.17     0.90     7.60     0  00:00        0.40
  WS02006112           JUNCTION     0.73     2.68     8.56     0  00:00        1.14
  WS02006113           JUNCTION     0.26     1.40     8.29     0  00:00        0.46
  WS02006115           JUNCTION     0.46     1.65     7.79     0  00:00        0.86
  WS02006116           JUNCTION     0.55     1.06     7.10     0  00:00        0.83
  WS02006228           JUNCTION     0.63     1.19     7.84     0  01:56        1.19
  WS02006229           JUNCTION     0.60     1.16     7.85     0  02:20        1.14
  WS02006230           JUNCTION     0.60     1.32     8.07     0  02:20        1.17
  WS02006231           JUNCTION     0.41     1.04     8.17     0  02:05        0.93
  WS02006232           JUNCTION     0.55     1.51     8.54     0  03:50        1.14
  WS02006234           JUNCTION     0.47     1.68     8.84     0  03:50        1.16
  WS02006235           JUNCTION     0.51     1.75     8.91     0  03:50        1.36
  WS02006238           JUNCTION     0.54     1.78     8.93     0  03:50        1.49
  WS02006239           JUNCTION     0.51     1.75     8.96     0  01:54        1.75
  WS02006240           JUNCTION     0.48     1.84     9.13     0  01:54        1.84
  WS02006242           JUNCTION     0.55     1.55     8.82     0  01:54        1.55
  WS02006243           JUNCTION     0.47     1.35     8.77     0  01:54        1.35
  WS02006245           JUNCTION     0.47     1.20     8.69     0  03:50        1.18
  WS02006247           JUNCTION     0.49     1.18     8.68     0  01:54        1.16
  WS02006248           JUNCTION     0.45     1.10     8.69     0  01:54        1.10
  WS02006249           JUNCTION     0.48     1.09     8.69     0  01:47        1.09
  WS02006251           JUNCTION     0.48     1.29     8.96     0  03:20        1.13
  WS02006252           JUNCTION     0.35     1.50     9.74     0  00:25        0.69
  WS02006256           JUNCTION     0.93     2.35     9.28     0  00:14        2.35
  WSF200               JUNCTION     0.16     0.29     5.52     0  02:42        0.29
  YS02001580           JUNCTION     0.20     1.05     9.59     0  01:34        0.77
  YS02001583           JUNCTION     0.23     1.14     9.64     0  01:34        0.82
  YS02001586           JUNCTION     0.35     1.13     9.30     0  01:34        1.13
  YS02001590           JUNCTION     0.47     1.40     9.26     0  01:54        1.40
  YS02001593           JUNCTION     0.40     1.31     9.17     0  01:34        1.28
  YS02001596           JUNCTION     0.54     1.68     9.10     0  01:34        1.65
  YS02001600           JUNCTION     0.64     1.87     9.00     0  01:34        1.87
  YS02001601           JUNCTION     0.82     2.06     8.90     0  01:33        2.06
  YS02001602           JUNCTION     0.72     1.87     8.77     0  01:33        1.87
  YS02001605           JUNCTION     0.67     1.78     8.68     0  01:33        1.78
  YS02001607           JUNCTION     0.63     1.68     8.53     0  01:34        1.65
  YS02001610           JUNCTION     0.67     1.68     8.48     0  01:33        1.68
  YS02001613           JUNCTION     0.63     1.69     8.53     0  01:33        1.67
  YS02001616           JUNCTION     0.57     1.61     8.52     0  01:34        1.61
  YS02001619           JUNCTION     0.55     1.61     8.54     0  01:34        1.61
  YS02001622           JUNCTION     0.54     1.61     8.51     0  01:34        1.59
  YS02001625           JUNCTION     0.77     1.78     8.38     0  01:38        1.78
  YS02001629           JUNCTION     0.68     1.85     8.40     0  01:34        1.85
  YS02001633           JUNCTION     0.76     2.08     8.53     0  01:47        2.08
  YS02001641           JUNCTION     0.73     1.97     8.41     0  01:40        1.97
  YS02001644           JUNCTION     0.72     1.92     8.35     0  01:40        1.92
  YS02001647           JUNCTION     0.52     1.81     8.42     0  01:41        1.79
  YS02001649           JUNCTION     0.59     2.05     8.44     0  01:47        2.05
  YS02001652           JUNCTION     0.47     2.16     8.76     0  01:40        2.05
  YS02001655           JUNCTION     0.38     2.20     9.05     0  01:40        2.01
  YS02001658           JUNCTION     0.29     2.30     9.44     0  01:41        1.92
  YS02001661           JUNCTION     0.26     1.87     9.27     0  01:49        1.87
  YS02001664           JUNCTION     0.11     1.56     9.49     0  01:49        1.56
  YS02001745           JUNCTION     0.16     1.28     8.80     0  01:49        1.28
  YS02001748           JUNCTION     0.27     2.17     9.25     0  01:42        1.62
  YS02001751           JUNCTION     0.33     2.06     8.94     0  01:42        1.73
  YS02001754           JUNCTION     0.43     2.03     8.63     0  01:42        1.92
  YS02001757           JUNCTION     0.61     2.18     8.44     0  01:47        2.17
  YS02001759           JUNCTION     0.55     2.21     8.57     0  01:47        2.19
  YS02001762           JUNCTION     0.54     2.15     8.55     0  01:47        2.13
  YS02001765           JUNCTION     0.52     2.09     8.54     0  01:47        2.06
  YS02001767           JUNCTION     0.51     2.02     8.51     0  01:42        2.00
  YS02001770           JUNCTION     0.52     1.95     8.45     0  01:42        1.95
  YS02001774           JUNCTION     0.58     2.00     8.43     0  01:54        2.00
  YS02001779           JUNCTION     0.41     1.68     8.37     0  01:39        1.68
  YS02001783           JUNCTION     0.21     1.27     7.42     0  02:09        1.23
  YS02001784           JUNCTION     0.22     1.15     7.21     0  02:09        1.11
  YS02001786           JUNCTION     0.19     0.89     6.92     0  02:09        0.87
  YS02001788           JUNCTION     0.13     0.62     6.60     0  02:12        0.62
  YS02001790           JUNCTION     0.16     0.73     6.37     0  02:12        0.72
  YS02001791           JUNCTION     0.10     0.44     5.91     0  02:12        0.43
  YS02001793           JUNCTION     0.05     0.30     5.13     0  02:22        0.26
  YS02001882           JUNCTION     0.27     1.69     8.41     0  02:17        1.63
  YS02001884           JUNCTION     0.35     1.79     8.40     0  02:17        1.73
  YS02001887           JUNCTION     0.43     1.84     8.38     0  02:17        1.82
  YS02001890           JUNCTION     0.46     1.81     8.32     0  02:09        1.81
  YS02001895           JUNCTION     0.24     1.59     8.34     0  02:17        1.57
  YS02001898           JUNCTION     0.24     1.59     8.33     0  02:17        1.56
  YS02001901           JUNCTION     0.34     1.69     8.30     0  02:17        1.67
  YS02001904           JUNCTION     0.33     1.64     8.27     0  02:17        1.63
  YS02001907           JUNCTION     0.63     1.96     8.25     0  02:09        1.96
  YS02001910           JUNCTION     0.44     1.96     8.47     0  02:10        1.85
  YS02001915           JUNCTION     0.27     1.90     8.62     0  02:10        1.70
  YS02001918           JUNCTION     0.14     1.81     8.88     0  02:10        1.38
  YS02001920           JUNCTION     0.22     2.14     9.15     0  02:10        1.45
  YS02001923           JUNCTION     0.11     2.03     9.29     0  02:10        1.22
  YS02001926           JUNCTION     0.14     1.90     9.35     0  02:10        1.04
  YS02001929           JUNCTION     0.08     1.78     9.47     0  02:10        0.81
  YS02006553           JUNCTION     0.63     1.98     8.26     0  02:17        1.97
  YS02006556           JUNCTION     0.61     1.95     8.26     0  02:17        1.94
  YS02006558           JUNCTION     0.65     1.99     8.26     0  02:09        1.99
  YS02006561           JUNCTION     0.13     0.96     7.62     0  02:09        0.89
  YS02163301           JUNCTION     0.71     1.95     8.47     0  01:48        1.95
  YS02163601           JUNCTION     0.79     2.08     8.48     0  01:54        2.07
  YS02164001           JUNCTION     0.72     1.98     8.44     0  01:54        1.98
  CC-1                 OUTFALL      0.00     0.00     0.00     0  00:00        0.00
  CC-2                 OUTFALL      0.00     0.00     0.00     0  00:00        0.00
  JK-1                 OUTFALL      0.00     0.00     0.00     0  00:00        0.00
  JK-2                 OUTFALL      0.00     0.00     0.00     0  00:00        0.00
  WSC                  OUTFALL      0.17     0.30     0.97     0  02:44        0.30
  CC-storage           STORAGE      0.94     2.00     7.50     0  02:35        2.00
  JK-storage           STORAGE      1.32     4.23     5.03     0  02:22        4.12
  
  
  *******************
  Node Inflow Summary
  *******************
  
  -------------------------------------------------------------------------------------------------
                                  Maximum  Maximum                  Lateral       Total        Flow
                                  Lateral    Total  Time of Max      Inflow      Inflow     Balance
                                   Inflow   Inflow   Occurrence      Volume      Volume       Error
  Node                 Type           LPS      LPS  days hr:min    10^6 ltr    10^6 ltr     Percent
  -------------------------------------------------------------------------------------------------
  WS02003060           JUNCTION     16.53   553.43     0  02:42       0.476        5.53       0.046
  WS02003066           JUNCTION      0.00   536.83     0  02:42           0        5.06       0.028
  WS02003067           JUNCTION      0.00   536.83     0  02:42           0        5.06       0.084
  WS02003069           JUNCTION      0.32   553.64     0  02:43     0.00922        5.54       0.073
  WS02003072           JUNCTION      0.00   553.52     0  02:43           0        5.53       0.128
  WS02003073           JUNCTION      1.82   555.26     0  02:44      0.0524        5.58       0.107
  WS02004401           JUNCTION      0.00  1677.78     0  00:00           0        5.17       0.220
  WS02004402           JUNCTION      0.00  1171.33     0  00:01           0        5.16       0.216
  WS02004403           JUNCTION      0.00   884.75     0  00:01           0        5.14       0.211
  WS02004404           JUNCTION      0.16   832.59     0  00:01     0.00467        5.14       0.174
  WS02004405           JUNCTION      0.04   776.49     0  00:01      0.0011        5.13       0.245
  WS02004406           JUNCTION      0.00   711.76     0  00:02           0        5.12       0.424
  WS02004407           JUNCTION      0.00   538.05     0  02:40           0         5.1       0.022
  WS02004409           JUNCTION      0.00   537.70     0  02:40           0        5.09       0.054
  WS02004410           JUNCTION      0.00   537.34     0  02:41           0        5.09       0.089
  WS02004411           JUNCTION      0.00   537.18     0  02:41           0        5.09       0.114
  WS02004412           JUNCTION      0.00   537.02     0  02:41           0        5.08       0.148
  WS02004413           JUNCTION      0.00   536.98     0  02:42           0        5.07       0.269
  WS02006109           JUNCTION      1.23  1308.01     0  00:00      0.0354         5.1       0.127
  WS02006110           JUNCTION      0.00   555.04     0  02:05           0        5.07      -0.713
  WS02006111           JUNCTION      0.00  1176.04     0  00:00           0         5.1      -0.760
  WS02006112           JUNCTION      0.00  2307.30     0  00:00           0        5.14      -0.013
  WS02006113           JUNCTION      0.00   565.49     0  02:21           0        5.06      -0.969
  WS02006115           JUNCTION      0.00   899.27     0  00:00           0        5.11      -0.631
  WS02006116           JUNCTION      0.00  1098.16     0  00:01           0        5.15      -0.451
  WS02006228           JUNCTION      0.00   551.80     0  02:21           0        5.04       0.067
  WS02006229           JUNCTION      0.00   552.30     0  02:21           0        5.03       0.159
  WS02006230           JUNCTION     10.28   590.13     0  01:55       0.296        5.01      -0.002
  WS02006231           JUNCTION      0.00   575.01     0  02:45           0        4.71       0.013
  WS02006232           JUNCTION      0.00   574.18     0  02:45           0        4.71       0.180
  WS02006234           JUNCTION      0.00   569.67     0  02:45           0         4.7      -0.241
  WS02006235           JUNCTION      0.00   574.47     0  01:45           0        4.77       0.268
  WS02006238           JUNCTION      0.00   425.43     0  01:54           0         3.9      -0.237
  WS02006239           JUNCTION      0.00   424.31     0  01:54           0        3.85      -0.218
  WS02006240           JUNCTION      0.00   423.94     0  03:31           0        3.83      -0.031
  WS02006242           JUNCTION      0.00   423.84     0  01:54           0        3.82      -0.006
  WS02006243           JUNCTION      0.00   424.63     0  03:31           0        3.82      -0.181
  WS02006245           JUNCTION      0.00   425.91     0  03:31           0        3.83       0.468
  WS02006247           JUNCTION      0.00   427.22     0  03:31           0        3.83      -0.038
  WS02006248           JUNCTION      0.00   426.30     0  03:31           0        3.83      -0.040
  WS02006249           JUNCTION      0.00   467.67     0  04:25           0         4.1       0.658
  WS02006251           JUNCTION      0.08   405.52     0  02:45     0.00222         4.1       0.013
  WS02006252           JUNCTION      0.00   400.00     0  00:10           0        4.08      -0.345
  WS02006256           JUNCTION      0.00   300.00     0  00:15           0        1.29      -2.148
  WSF200               JUNCTION      0.00   536.85     0  02:42           0        5.05       0.011
  YS02001580           JUNCTION      0.00    86.81     0  01:34           0     0.00421      -0.253
  YS02001583           JUNCTION      0.00   139.36     0  01:34           0      0.0156      -4.168
  YS02001586           JUNCTION   1709.70  1709.70     0  01:52        3.82        3.83       0.035
  YS02001590           JUNCTION      0.00   318.14     0  01:50           0        1.98      -0.017
  YS02001593           JUNCTION      0.00   318.20     0  01:50           0        1.98       0.001
  YS02001596           JUNCTION      0.00   318.29     0  01:43           0        1.98      -0.011
  YS02001600           JUNCTION      0.00   318.23     0  01:49           0        1.98       0.005
  YS02001601           JUNCTION   2951.25  3268.74     0  01:51        5.08        7.05       0.007
  YS02001602           JUNCTION      0.00   514.67     0  01:33           0        2.99       0.010
  YS02001605           JUNCTION      0.00   514.85     0  01:33           0        2.72       0.015
  YS02001607           JUNCTION      0.00   514.92     0  01:33           0        2.72       0.069
  YS02001610           JUNCTION      0.00   954.52     0  01:54           0        3.76       0.058
  YS02001613           JUNCTION      0.00   617.81     0  01:54           0        2.73       0.044
  YS02001616           JUNCTION      0.00   618.98     0  01:54           0        2.73       0.016
  YS02001619           JUNCTION   3035.17  3035.17     0  01:52        6.15        7.85       0.003
  YS02001622           JUNCTION      0.00  1054.26     0  01:49           0        5.96      -0.002
  YS02001625           JUNCTION      0.00  1505.60     0  01:57           0        6.67       0.163
  YS02001629           JUNCTION      0.00  1139.26     0  01:52           0        4.44      -0.008
  YS02001633           JUNCTION   2218.19  2218.19     0  01:51        3.75           7       0.046
  YS02001641           JUNCTION      0.00  1368.61     0  01:38           0        5.79       0.047
  YS02001644           JUNCTION   1974.84  3715.62     0  01:51        3.26        9.43       0.037
  YS02001647           JUNCTION      0.00  1769.47     0  01:38           0        6.71       0.007
  YS02001649           JUNCTION      0.00  2030.70     0  01:37           0        9.35      -0.003
  YS02001652           JUNCTION      0.00  1940.60     0  01:50           0        3.03      -0.050
  YS02001655           JUNCTION      0.15  1938.91     0  01:50     0.00443        3.03       0.020
  YS02001658           JUNCTION      0.00  1936.68     0  01:50           0        3.03      -0.017
  YS02001661           JUNCTION      0.00  1933.86     0  01:50           0        3.03      -0.018
  YS02001664           JUNCTION   1934.11  1934.11     0  01:50        3.03        3.03      -0.009
  YS02001745           JUNCTION   1210.07  1210.07     0  01:50        1.79        1.79       0.087
  YS02001748           JUNCTION      0.04  1211.26     0  01:50      0.0013        1.79      -0.131
  YS02001751           JUNCTION      0.01  1210.82     0  01:50    0.000317        1.79       0.046
  YS02001754           JUNCTION      0.26  1212.29     0  01:50     0.00749         1.8      -0.089
  YS02001757           JUNCTION      0.00  3442.05     0  01:47           0        15.2       0.027
  YS02001759           JUNCTION   1682.67  1682.67     0  01:50        2.49        4.56      -0.013
  YS02001762           JUNCTION      0.00   782.38     0  01:42           0        2.16      -0.010
  YS02001765           JUNCTION      0.00   782.65     0  01:42           0        2.16      -0.007
  YS02001767           JUNCTION      0.54   782.98     0  01:42      0.0154        2.16      -0.006
  YS02001770           JUNCTION   2393.31  2734.14     0  01:50        3.75        3.89      -0.010
  YS02001774           JUNCTION      0.00   852.37     0  01:58           0        1.05       0.079
  YS02001779           JUNCTION      0.01   852.01     0  01:51    0.000144        1.01      -0.026
  YS02001783           JUNCTION      0.00  1159.21     0  02:13           0        3.52       0.003
  YS02001784           JUNCTION      1.06  1160.52     0  02:13      0.0305        3.55       0.013
  YS02001786           JUNCTION      0.06  1160.13     0  02:13     0.00162        3.55       0.018
  YS02001788           JUNCTION      0.07  1160.77     0  02:13     0.00204        3.55       0.009
  YS02001790           JUNCTION      0.15  1169.02     0  02:12     0.00446        3.55       0.024
  YS02001791           JUNCTION      0.00  1289.24     0  02:12           0        3.55      -0.023
  YS02001793           JUNCTION      0.00  1250.14     0  02:12           0        3.55       0.005
  YS02001882           JUNCTION      0.00    40.87     0  02:07           0      0.0125       3.738
  YS02001884           JUNCTION      0.00    77.47     0  02:07           0      0.0484       5.026
  YS02001887           JUNCTION    647.02   647.05     0  02:13       0.922       0.956       0.455
  YS02001890           JUNCTION      0.00   647.66     0  02:13           0       0.915       0.551
  YS02001895           JUNCTION      0.00   516.33     0  02:15           0       0.882       0.152
  YS02001898           JUNCTION      0.00   516.32     0  02:15           0       0.881       0.010
  YS02001901           JUNCTION      0.00   516.57     0  02:15           0       0.884       0.339
  YS02001904           JUNCTION      0.00   516.70     0  02:16           0       0.888       0.304
  YS02001907           JUNCTION      0.00  1654.06     0  02:14           0        2.91       0.619
  YS02001910           JUNCTION      0.00  1139.52     0  02:14           0        2.03       0.349
  YS02001915           JUNCTION    736.71  1139.16     0  02:14        1.27        2.07       0.059
  YS02001918           JUNCTION      0.00   442.00     0  02:11           0       0.818       0.001
  YS02001920           JUNCTION      2.87   440.79     0  02:11      0.0827       0.802       0.106
  YS02001923           JUNCTION      0.04   424.36     0  02:10     0.00109       0.703      -0.142
  YS02001926           JUNCTION      0.05   540.61     0  02:10      0.0015       0.684      -0.124
  YS02001929           JUNCTION    355.38   355.38     0  02:15       0.671       0.672      -0.112
  YS02006553           JUNCTION      0.00   797.17     0  02:26           0        2.22       0.537
  YS02006556           JUNCTION      0.00   797.48     0  02:26           0        2.22       0.359
  YS02006558           JUNCTION    855.39  1159.40     0  02:12        1.34        3.54       0.101
  YS02006561           JUNCTION      0.00  1158.98     0  02:13           0        3.52       0.000
  YS02163301           JUNCTION      0.00  1139.08     0  01:52           0        4.44       0.030
  YS02163601           JUNCTION      0.11  1368.15     0  01:38     0.00317        5.78       0.084
  YS02164001           JUNCTION      0.00  1368.40     0  01:38           0        5.78       0.033
  CC-1                 OUTFALL       0.00   683.00     0  00:05           0        6.49       0.000
  CC-2                 OUTFALL       0.00   683.00     0  00:20           0        5.47       0.000
  JK-1                 OUTFALL       0.00  1000.00     0  00:05           0        1.45       0.000
  JK-2                 OUTFALL       0.00  1000.00     0  00:05           0       0.937       0.000
  WSC                  OUTFALL       0.00   555.17     0  02:44           0        5.57       0.000
  CC-storage           STORAGE       0.00  3444.42     0  01:47           0        17.4      -0.184
  JK-storage           STORAGE       0.00  1250.74     0  02:12           0         3.7      -0.466
  
  
  **********************
  Node Surcharge Summary
  **********************
  
  Surcharging occurs when water rises above the top of the highest conduit.
  ---------------------------------------------------------------------
                                               Max. Height   Min. Depth
                                   Hours       Above Crown    Below Rim
  Node                 Type      Surcharged         Meters       Meters
  ---------------------------------------------------------------------
  WS02006109           JUNCTION        2.09          0.378        1.442
  WS02006110           JUNCTION        0.86          0.240        1.610
  WS02006111           JUNCTION        0.01          0.087        1.783
  WS02006112           JUNCTION        0.85          1.680        0.000
  WS02006113           JUNCTION        0.01          0.600        1.330
  WS02006115           JUNCTION        0.01          0.642        1.608
  WS02006116           JUNCTION        0.01          0.000        2.290
  WS02006228           JUNCTION        2.09          0.357        1.843
  WS02006229           JUNCTION        2.09          0.360        2.090
  WS02006230           JUNCTION        0.87          0.243        1.327
  WS02006231           JUNCTION        0.95          0.335        1.195
  WS02006232           JUNCTION        2.12          0.805        0.675
  WS02006234           JUNCTION        1.34          0.959        0.281
  WS02006235           JUNCTION        2.07          1.037        0.253
  WS02006238           JUNCTION        2.09          1.063        0.367
  WS02006239           JUNCTION        2.08          1.014        0.276
  WS02006240           JUNCTION        2.09          1.127        0.263
  WS02006242           JUNCTION        2.10          0.820        0.000
  WS02006243           JUNCTION        2.07          0.641        0.129
  WS02006245           JUNCTION        2.06          0.492        0.358
  WS02006247           JUNCTION        2.06          0.469        0.291
  WS02006248           JUNCTION        2.05          0.380        0.000
  WS02006249           JUNCTION        2.05          0.390        0.000
  WS02006251           JUNCTION        1.01          0.261        0.919
  WS02006252           JUNCTION        2.51          1.100        0.000
  WS02006256           JUNCTION        7.03          2.050        0.000
  YS02001580           JUNCTION        1.24          0.450        0.000
  YS02001583           JUNCTION        1.25          0.500        0.000
  YS02001586           JUNCTION        1.47          0.510        0.000
  YS02001590           JUNCTION        1.53          0.750        0.000
  YS02001593           JUNCTION        1.54          0.693        0.147
  YS02001596           JUNCTION        1.63          0.946        0.124
  YS02001600           JUNCTION        1.74          1.190        0.000
  YS02001601           JUNCTION        1.97          1.440        0.000
  YS02001602           JUNCTION        1.90          1.270        0.000
  YS02001605           JUNCTION        1.87          1.180        0.000
  YS02001607           JUNCTION        1.53          0.680        0.000
  YS02001610           JUNCTION        1.56          0.680        0.000
  YS02001613           JUNCTION        1.53          0.693        0.007
  YS02001616           JUNCTION        1.50          0.610        0.000
  YS02001619           JUNCTION        1.49          0.610        0.000
  YS02001622           JUNCTION        1.49          0.605        0.015
  YS02001625           JUNCTION        1.63          0.780        0.000
  YS02001629           JUNCTION        1.46          0.470        0.000
  YS02001633           JUNCTION        1.68          1.060        0.000
  YS02001641           JUNCTION        1.64          0.970        0.130
  YS02001644           JUNCTION        1.62          0.920        0.000
  YS02001647           JUNCTION        1.44          0.814        0.086
  YS02001649           JUNCTION        1.55          1.050        0.000
  YS02001652           JUNCTION        1.40          1.130        0.000
  YS02001655           JUNCTION        1.23          1.200        0.000
  YS02001658           JUNCTION        0.70          1.300        0.000
  YS02001661           JUNCTION        0.29          0.799        0.591
  YS02001664           JUNCTION        0.12          0.563        0.747
  YS02001745           JUNCTION        0.11          0.280        1.070
  YS02001748           JUNCTION        0.55          1.091        0.099
  YS02001751           JUNCTION        1.06          1.056        0.144
  YS02001754           JUNCTION        1.35          0.977        0.173
  YS02001757           JUNCTION        1.62          1.176        0.034
  YS02001759           JUNCTION        1.54          1.210        0.000
  YS02001762           JUNCTION        1.52          1.150        0.000
  YS02001765           JUNCTION        1.48          1.086        0.014
  YS02001767           JUNCTION        1.45          1.023        0.007
  YS02001770           JUNCTION        1.43          0.920        0.000
  YS02001774           JUNCTION        1.50          1.004        0.046
  YS02001779           JUNCTION        1.35          0.680        0.000
  YS02001783           JUNCTION        0.44          0.474        1.126
  YS02001784           JUNCTION        0.42          0.346        1.144
  YS02001786           JUNCTION        0.31          0.089        1.341
  YS02001882           JUNCTION        0.39          0.693        0.137
  YS02001884           JUNCTION        0.40          0.726        0.144
  YS02001887           JUNCTION        0.43          0.792        0.158
  YS02001890           JUNCTION        0.44          0.760        0.000
  YS02001895           JUNCTION        0.38          0.592        0.158
  YS02001898           JUNCTION        0.38          0.564        0.176
  YS02001901           JUNCTION        0.42          0.692        0.178
  YS02001904           JUNCTION        0.41          0.644        0.206
  YS02001907           JUNCTION        0.65          0.950        0.000
  YS02001910           JUNCTION        0.47          0.960        0.140
  YS02001915           JUNCTION        0.39          0.904        0.096
  YS02001918           JUNCTION        0.31          0.810        0.000
  YS02001920           JUNCTION        0.32          1.140        0.000
  YS02001923           JUNCTION        0.02          0.820        0.000
  YS02001926           JUNCTION        0.03          0.900        0.000
  YS02001929           JUNCTION        0.01          0.780        0.000
  YS02006553           JUNCTION        0.66          0.976        0.214
  YS02006556           JUNCTION        0.56          0.908        0.442
  YS02006558           JUNCTION        0.54          0.890        0.510
  YS02006561           JUNCTION        0.27          0.165        0.985
  YS02163301           JUNCTION        1.65          0.955        0.075
  YS02163601           JUNCTION        1.71          1.080        0.000
  YS02164001           JUNCTION        1.64          0.984        0.116
  
  
  *********************
  Node Flooding Summary
  *********************
  
  Flooding refers to all water that overflows a node, whether it ponds or not.
  --------------------------------------------------------------------------
                                                             Total   Maximum
                                 Maximum   Time of Max       Flood    Ponded
                        Hours       Rate    Occurrence      Volume     Depth
  Node                 Flooded       LPS   days hr:min    10^6 ltr    Meters
  --------------------------------------------------------------------------
  WS02006112              0.01   1547.89      0  00:00       0.047     0.000
  WS02006242              0.01      2.37      0  01:54       0.000     0.000
  WS02006248              0.01      9.65      0  01:54       0.000     0.000
  WS02006249              0.97     81.17      0  03:16       0.238     0.000
  WS02006252              0.01      0.91      0  00:25       0.000     0.000
  WS02006256              1.19    290.34      0  03:50       0.442     0.000
  YS02001580              0.01     71.61      0  01:34       0.000     0.000
  YS02001583              0.01     93.90      0  01:34       0.000     0.000
  YS02001586              1.03   1391.94      0  01:52       1.845     0.000
  YS02001590              0.01      0.38      0  01:54       0.000     0.000
  YS02001600              0.01      0.73      0  01:34       0.000     0.000
  YS02001601              1.39   2870.40      0  01:51       4.066     0.000
  YS02001602              1.28     62.13      0  01:46       0.264     0.000
  YS02001605              0.01      3.04      0  01:34       0.000     0.000
  YS02001607              0.01     10.81      0  01:34       0.000     0.000
  YS02001610              1.13    953.87      0  01:54       2.061     0.000
  YS02001616              0.10     42.20      0  01:34       0.000     0.000
  YS02001619              0.33   1365.88      0  01:52       0.850     0.000
  YS02001625              1.14   1505.31      0  01:57       3.403     0.000
  YS02001629              0.39    687.96      0  01:51       0.473     0.000
  YS02001633              0.09    177.17      0  01:51       0.033     0.000
  YS02001644              0.55   3714.85      0  01:51       3.099     0.000
  YS02001649              0.08    379.81      0  01:49       0.056     0.000
  YS02001652              0.01     57.42      0  01:40       0.000     0.000
  YS02001655              0.01    247.22      0  01:40       0.000     0.000
  YS02001658              0.01    239.23      0  01:41       0.000     0.000
  YS02001759              0.01      1.40      0  01:47       0.000     0.000
  YS02001762              0.01      2.29      0  01:47       0.000     0.000
  YS02001770              0.23   1883.69      0  01:50       0.793     0.000
  YS02001779              0.49    851.58      0  01:57       0.990     0.000
  YS02001890              0.11    136.53      0  02:13       0.027     0.000
  YS02001907              0.25   1344.35      0  02:14       0.683     0.000
  YS02001918              0.01    137.87      0  02:10       0.001     0.000
  YS02001920              0.01     45.11      0  02:10       0.000     0.000
  YS02001923              0.01     86.89      0  02:10       0.000     0.000
  YS02001926              0.01    180.95      0  02:10       0.001     0.000
  YS02001929              0.01    163.66      0  02:10       0.000     0.000
  YS02163601              0.01      3.42      0  01:54       0.000     0.000
  
  
  **********************
  Storage Volume Summary
  **********************
  
  ------------------------------------------------------------------------------------------------
                         Average    Avg   Evap  Exfil     Maximum    Max    Time of Max    Maximum
                          Volume   Pcnt   Pcnt   Pcnt      Volume   Pcnt     Occurrence    Outflow
  Storage Unit           1000 m³   Full   Loss   Loss     1000 m³   Full    days hr:min        LPS
  ------------------------------------------------------------------------------------------------
  CC-storage               2.626   41.0    0.0    0.0       5.582   87.1       0  02:35    1766.00
  JK-storage               0.067   22.8    0.0    0.0       0.213   73.0       0  02:22    2300.00
  
  
  ***********************
  Outfall Loading Summary
  ***********************
  
  -----------------------------------------------------------
                         Flow       Avg       Max       Total
                         Freq      Flow      Flow      Volume
  Outfall Node           Pcnt       LPS       LPS    10^6 ltr
  -----------------------------------------------------------
  CC-1                  47.07    683.00    683.00       6.489
  CC-2                  39.44    683.00    683.00       5.475
  JK-1                   6.76   1000.00   1000.00       1.453
  JK-2                   4.17   1000.00   1000.00       0.937
  WSC                   99.99    231.75    555.17       5.572
  -----------------------------------------------------------
  System                39.49   3597.75   3920.98      19.926
  
  
  ********************
  Link Flow Summary
  ********************
  
  -----------------------------------------------------------------------------
                                 Maximum  Time of Max   Maximum    Max/    Max/
                                  |Flow|   Occurrence   |Veloc|    Full    Full
  Link                 Type          LPS  days hr:min     m/sec    Flow   Depth
  -----------------------------------------------------------------------------
  1                    CONDUIT    555.17     0  02:44      2.83    0.19    0.30
  WS02003060WS02003069 CONDUIT    553.32     0  02:43      1.64    0.22    0.34
  WS02003066WSF200     CONDUIT    536.85     0  02:42      2.85    0.09    0.22
  WS02003067WS02003066 CONDUIT    536.83     0  02:42      1.21    0.17    0.42
  WS02003069WS02003072 CONDUIT    553.52     0  02:43      1.37    0.27    0.39
  WS02003072WS02003073 CONDUIT    553.44     0  02:44      1.44    1.20    0.37
  WS02004401WS02004402 CONDUIT   1171.33     0  00:01      2.51    1.41    0.86
  WS02004402WS02004403 CONDUIT    884.75     0  00:01      2.16    1.27    0.88
  WS02004403WS02004404 CONDUIT    832.43     0  00:01      1.96    0.60    0.93
  WS02004404WS02004405 CONDUIT    776.45     0  00:01      2.26    7.61    0.96
  WS02004405WS02004406 CONDUIT    711.76     0  00:02      2.15    1.40    0.96
  WS02004406WS02004407 CONDUIT    538.05     0  02:40      1.04    0.24    0.63
  WS02004407WS02004409 CONDUIT    537.70     0  02:40      1.95    0.19    0.48
  WS02004409WS02004410 CONDUIT    537.34     0  02:41      1.31    0.69    0.67
  WS02004410WS02004411 CONDUIT    537.18     0  02:41      1.19    0.73    0.69
  WS02004411WS02004412 CONDUIT    537.02     0  02:41      1.07    0.76    0.69
  WS02004412WS02004413 CONDUIT    536.98     0  02:42      1.10    0.36    0.78
  WS02004413WS02003067 CONDUIT    536.83     0  02:42      1.11    0.23    0.59
  WS02006109WS02006110 CONDUIT   1306.78     0  00:00      3.14    2.51    1.00
  WS02006110WS02006113 CONDUIT    565.49     0  02:21      1.37    0.51    1.00
  WS02006111WS02006112 CONDUIT   2307.30     0  00:00      9.18    1.10    0.91
  WS02006112WS02006115 CONDUIT    899.27     0  00:00      1.16    0.53    1.00
  WS02006113WS02006111 CONDUIT   1176.04     0  00:00      2.47    1.41    1.00
  WS02006115WS02006116 CONDUIT   1098.16     0  00:01      1.72    1.41    1.00
  WS02006116WS02004401 CONDUIT   1677.78     0  00:00      2.92    2.31    0.84
  WS02006228WS02006109 CONDUIT    552.75     0  02:05      1.40    2.42    1.00
  WS02006229WS02006228 CONDUIT    551.80     0  02:21      1.24    1.83    1.00
  WS02006230WS02006229 CONDUIT    552.30     0  02:21      1.44   12.29    1.00
  WS02006231WS02006230 CONDUIT    579.85     0  01:55      1.57    8.80    1.00
  WS02006232WS02006231 CONDUIT    575.01     0  02:45      1.50    1.20    1.00
  WS02006234WS02006232 CONDUIT    574.18     0  02:45      1.56    1.16    1.00
  WS02006235WS02006234 CONDUIT    569.67     0  02:45      1.48    6.01    1.00
  WS02006238WS02006235 CONDUIT    439.62     0  01:54      1.65    0.98    1.00
  WS02006239WS02006238 CONDUIT    425.43     0  01:54      1.27    1.36    1.00
  WS02006240WS02006239 CONDUIT    424.31     0  01:54      1.31    1.34    1.00
  WS02006242WS02006240 CONDUIT    423.94     0  03:31      1.17    1.68    1.00
  WS02006243WS02006242 CONDUIT    423.84     0  01:54      1.42    0.91    1.00
  WS02006245WS02006243 CONDUIT    424.63     0  03:31      1.43    1.26    1.00
  WS02006247WS02006245 CONDUIT    425.91     0  03:31      1.39    3.38    1.00
  WS02006248WS02006247 CONDUIT    427.22     0  03:31      1.46    0.93    1.00
  WS02006249WS02006248 CONDUIT    426.30     0  03:31      1.41    2.34    1.00
  WS02006251WS02006249 CONDUIT    467.67     0  04:25      1.94    1.35    1.00
  WS02006252WS02006251 CONDUIT    405.44     0  02:45     26.18    1.49    1.00
  WS02006256WS02006235 CONDUIT    287.85     0  06:35      4.20    3.05    1.00
  WSF200WS02003060     CONDUIT    536.91     0  02:42      2.06    0.12    0.28
  YS02001580YS02001583 CONDUIT     86.81     0  01:34      0.59    0.34    1.00
  YS02001583YS02001586 CONDUIT    139.36     0  01:34      0.59    0.21    1.00
  YS02001586YS02001590 CONDUIT    318.14     0  01:50      1.24    0.56    1.00
  YS02001590YS02001593 CONDUIT    318.20     0  01:50      1.13    2.00    1.00
  YS02001593YS02001596 CONDUIT    318.29     0  01:43      1.69    0.50    1.00
  YS02001596YS02001600 CONDUIT    318.23     0  01:49      1.26    0.62    1.00
  YS02001600YS02001601 CONDUIT    318.41     0  01:49      1.13    0.55    1.00
  YS02001601YS02001602 CONDUIT    514.67     0  01:33      1.82    1.86    1.00
  YS02001602YS02001605 CONDUIT    514.85     0  01:33      1.82   10.90    1.00
  YS02001605YS02001607 CONDUIT    514.92     0  01:33      1.82    2.82    1.00
  YS02001607YS02001610 CONDUIT    521.75     0  01:33      0.66    0.50    1.00
  YS02001610YS02001613 CONDUIT    618.03     0  01:54      0.79    0.71    1.00
  YS02001613YS02001616 CONDUIT    617.81     0  01:54      0.79    0.53    1.00
  YS02001616YS02001619 CONDUIT    618.98     0  01:54      0.79    1.07    1.00
  YS02001619YS02001622 CONDUIT   1054.26     0  01:49      1.34    1.55    1.00
  YS02001622YS02001625 CONDUIT   1053.91     0  01:51      1.34    0.56    1.00
  YS02001625YS02001629 CONDUIT    923.96     0  01:37      1.18    0.44    1.00
  YS02001629YS02163301 CONDUIT   1139.26     0  01:52      1.45    1.40    1.00
  YS02001633YS02163601 CONDUIT   1368.04     0  01:38      1.74    1.44    1.00
  YS02001641YS02001644 CONDUIT   1369.35     0  01:38      1.74    4.43    1.00
  YS02001644YS02001647 CONDUIT   1769.47     0  01:38      2.26    1.04    1.00
  YS02001647YS02001649 CONDUIT   1791.95     0  01:38      2.33    0.95    1.00
  YS02001649YS02001757 CONDUIT   1991.31     0  01:38      2.56    1.21    1.00
  YS02001652YS02001649 CONDUIT   1942.84     0  01:50      2.47    0.96    1.00
  YS02001655YS02001652 CONDUIT   1940.60     0  01:50      2.47    0.94    1.00
  YS02001658YS02001655 CONDUIT   1938.76     0  01:50      2.47    0.82    1.00
  YS02001661YS02001658 CONDUIT   1936.68     0  01:50      2.47    0.76    1.00
  YS02001664YS02001661 CONDUIT   1933.86     0  01:50      2.46    0.61    1.00
  YS02001745YS02001748 CONDUIT   1211.21     0  01:50      2.15    0.47    1.00
  YS02001748YS02001751 CONDUIT   1210.81     0  01:50      1.69    0.61    1.00
  YS02001751YS02001754 CONDUIT   1212.03     0  01:50      1.54    0.58    1.00
  YS02001754YS02001757 CONDUIT   1214.23     0  01:50      1.55    0.49    1.00
  YS02001757CaochengTiaoxuchi CONDUIT   3444.42     0  01:47      4.39    1.49    1.00
  YS02001759YS02001757 CONDUIT   1488.84     0  01:48      1.90    1.06    1.00
  YS02001762YS02001759 CONDUIT    784.33     0  01:42      1.00    0.90    1.00
  YS02001765YS02001762 CONDUIT    782.38     0  01:42      1.00    0.73    1.00
  YS02001767YS02001765 CONDUIT    782.65     0  01:42      1.00    0.98    1.00
  YS02001770YS02001767 CONDUIT    782.45     0  01:42      1.00    3.10    1.00
  YS02001774YS02001770 CONDUIT    852.37     0  01:58      1.09    0.54    1.00
  YS02001779YS02001774 CONDUIT    852.00     0  01:51      1.08    0.43    1.00
  YS02001783YS02001784 CONDUIT   1159.46     0  02:13      2.31    1.60    1.00
  YS02001784YS02001785 CONDUIT   1160.07     0  02:13      2.31    2.70    1.00
  YS02001786YS02001788 CONDUIT   1160.70     0  02:13      2.48    2.24    0.89
  YS02001788YS02001790 CONDUIT   1168.86     0  02:12      2.71    0.86    0.84
  YS02001790YS02001791 CONDUIT   1289.24     0  02:12      3.42    1.40    0.71
  YS02001791YS02001793 CONDUIT   1250.14     0  02:12      6.79    0.54    0.44
  YS02001793JiankangQianchi CONDUIT   1250.74     0  02:12      2.51    0.10    0.65
  YS02001882YS02001884 CONDUIT     40.87     0  02:07      0.10    0.05    1.00
  YS02001884YS02001887 CONDUIT     77.47     0  02:07      0.10    0.10    1.00
  YS02001887YS02001890 CONDUIT    647.66     0  02:13      0.82    1.11    1.00
  YS02001890YS02001895 CONDUIT    516.33     0  02:15      0.66    0.24    1.00
  YS02001895YS02001898 CONDUIT    516.32     0  02:15      0.66    0.90    1.00
  YS02001898YS02001901 CONDUIT    516.57     0  02:15      0.66    0.33    1.00
  YS02001901YS02001904 CONDUIT    516.70     0  02:16      0.66    0.80    1.00
  YS02001904YS02001907 CONDUIT    516.76     0  02:16      0.66    0.18    1.00
  YS02001907YS02006553 CONDUIT    797.17     0  02:26      0.89    0.94    1.00
  YS02001910YS02001907 CONDUIT   1139.64     0  02:14      1.45    0.64    1.00
  YS02001915YS02001910 CONDUIT   1139.52     0  02:14      1.45    0.57    1.00
  YS02001918YS02001915 CONDUIT    443.57     0  02:11      0.56    0.24    1.00
  YS02001920YS02001918 CONDUIT    442.00     0  02:11      0.66    0.43    1.00
  YS02001923YS02001920 CONDUIT    437.92     0  02:11      0.69    0.20    1.00
  YS02001926YS02001923 CONDUIT    406.59     0  02:10      0.96    0.58    1.00
  YS02001929YS02001926 CONDUIT    402.73     0  02:10      1.12    0.19    1.00
  YS02006553YS02006556 CONDUIT    797.48     0  02:26      1.02    0.68    1.00
  YS02006556YS02006558 CONDUIT    799.25     0  02:26      1.02    0.63    1.00
  YS02006558YS02006561 CONDUIT   1158.98     0  02:13      4.10    2.56    1.00
  YS02006561YS02001783 CONDUIT   1159.21     0  02:13      2.31    0.60    1.00
  YS02163301YS02001633 CONDUIT   1139.08     0  01:52      1.45    1.07    1.00
  YS02163601YS02164001 CONDUIT   1368.40     0  01:38      1.74    1.21    1.00
  YS02164001YS02001641 CONDUIT   1368.61     0  01:38      1.74    1.87    1.00
  CC-R1                PUMP       683.00     0  00:05              1.00
  CC-R2                PUMP       683.00     0  00:20              1.00
  CC-S1                PUMP       200.00     0  00:10              1.00
  CC-S2                PUMP       200.00     0  00:10              1.00
  JK-R1                PUMP      1000.00     0  00:05              1.00
  JK-R2                PUMP      1000.00     0  00:05              1.00
  JK-S                 PUMP       300.00     0  00:15              1.00
  
  
  ***************************
  Flow Classification Summary
  ***************************
  
  -------------------------------------------------------------------------------------
                      Adjusted    ---------- Fraction of Time in Flow Class ---------- 
                       /Actual         Up    Down  Sub   Sup   Up    Down  Norm  Inlet 
  Conduit               Length    Dry  Dry   Dry   Crit  Crit  Crit  Crit  Ltd   Ctrl  
  -------------------------------------------------------------------------------------
  1                       1.00   0.00  0.00  0.00  0.00  1.00  0.00  0.00  0.26  0.00
  WS02003060WS02003069    1.00   0.00  0.00  0.00  0.97  0.03  0.00  0.00  0.63  0.00
  WS02003066WSF200        1.00   0.03  0.00  0.00  0.00  0.97  0.00  0.00  0.85  0.00
  WS02003067WS02003066    1.00   0.02  0.01  0.00  0.97  0.00  0.00  0.00  0.00  0.00
  WS02003069WS02003072    1.00   0.00  0.00  0.00  0.99  0.01  0.00  0.00  0.72  0.00
  WS02003072WS02003073    1.00   0.00  0.00  0.00  0.00  0.00  0.00  1.00  0.00  0.00
  WS02004401WS02004402    1.00   0.00  0.00  0.00  1.00  0.00  0.00  0.00  0.00  0.00
  WS02004402WS02004403    1.00   0.00  0.00  0.00  1.00  0.00  0.00  0.00  0.00  0.00
  WS02004403WS02004404    1.00   0.00  0.00  0.00  1.00  0.00  0.00  0.00  0.00  0.00
  WS02004404WS02004405    1.00   0.00  0.00  0.00  1.00  0.00  0.00  0.00  0.01  0.00
  WS02004405WS02004406    1.00   0.00  0.00  0.00  1.00  0.00  0.00  0.00  0.00  0.00
  WS02004406WS02004407    1.00   0.00  0.00  0.00  1.00  0.00  0.00  0.00  0.00  0.00
  WS02004407WS02004409    1.00   0.00  0.00  0.00  0.99  0.00  0.00  0.00  0.99  0.00
  WS02004409WS02004410    1.00   0.00  0.00  0.00  0.99  0.00  0.00  0.00  0.00  0.00
  WS02004410WS02004411    1.00   0.01  0.00  0.00  0.99  0.00  0.00  0.00  0.00  0.00
  WS02004411WS02004412    1.00   0.01  0.00  0.00  0.99  0.00  0.00  0.00  0.00  0.00
  WS02004412WS02004413    1.00   0.01  0.00  0.00  0.99  0.00  0.00  0.00  0.00  0.00
  WS02004413WS02003067    1.00   0.01  0.01  0.00  0.00  0.00  0.98  0.00  0.00  0.00
  WS02006109WS02006110    1.00   0.00  0.00  0.00  1.00  0.00  0.00  0.00  0.00  0.00
  WS02006110WS02006113    1.00   0.00  0.00  0.00  1.00  0.00  0.00  0.00  0.00  0.00
  WS02006111WS02006112    1.00   0.00  0.00  0.00  1.00  0.00  0.00  0.00  1.00  0.00
  WS02006112WS02006115    1.00   0.00  0.00  0.00  1.00  0.00  0.00  0.00  0.00  0.00
  WS02006113WS02006111    1.00   0.00  0.00  0.00  0.01  0.99  0.00  0.00  0.15  0.00
  WS02006115WS02006116    1.00   0.00  0.00  0.00  1.00  0.00  0.00  0.00  0.00  0.00
  WS02006116WS02004401    1.00   0.00  0.00  0.00  1.00  0.00  0.00  0.00  0.00  0.00
  WS02006228WS02006109    1.00   0.00  0.00  0.00  1.00  0.00  0.00  0.00  0.00  0.00
  WS02006229WS02006228    1.00   0.00  0.00  0.00  1.00  0.00  0.00  0.00  0.00  0.00
  WS02006230WS02006229    1.00   0.00  0.00  0.00  1.00  0.00  0.00  0.00  0.03  0.00
  WS02006231WS02006230    1.00   0.00  0.00  0.00  0.28  0.00  0.72  0.00  0.00  0.00
  WS02006232WS02006231    1.00   0.00  0.00  0.00  0.99  0.00  0.01  0.00  0.00  0.00
  WS02006234WS02006232    1.00   0.00  0.00  0.00  0.99  0.00  0.00  0.00  0.03  0.00
  WS02006235WS02006234    1.00   0.03  0.00  0.00  0.89  0.00  0.08  0.00  0.00  0.00
  WS02006238WS02006235    1.00   0.01  0.00  0.00  0.98  0.00  0.00  0.00  0.00  0.00
  WS02006239WS02006238    1.00   0.03  0.00  0.00  0.97  0.00  0.00  0.00  0.13  0.00
  WS02006240WS02006239    1.00   0.03  0.00  0.00  0.70  0.00  0.00  0.27  0.05  0.00
  WS02006242WS02006240    1.00   0.02  0.00  0.00  0.96  0.00  0.01  0.00  0.00  0.00
  WS02006243WS02006242    1.00   0.02  0.00  0.00  0.97  0.00  0.00  0.01  0.52  0.00
  WS02006245WS02006243    1.00   0.02  0.00  0.00  0.83  0.00  0.00  0.15  0.00  0.00
  WS02006247WS02006245    1.00   0.02  0.00  0.00  0.94  0.00  0.00  0.04  0.00  0.00
  WS02006248WS02006247    1.00   0.02  0.00  0.00  0.96  0.00  0.00  0.02  0.46  0.00
  WS02006249WS02006248    1.00   0.00  0.02  0.00  0.51  0.00  0.47  0.00  0.00  0.00
  WS02006251WS02006249    1.00   0.00  0.00  0.00  0.99  0.01  0.00  0.00  0.50  0.00
  WS02006252WS02006251    1.00   0.02  0.25  0.00  0.13  0.00  0.60  0.00  0.00  0.00
  WS02006256WS02006235    1.00   0.01  0.00  0.00  0.97  0.01  0.00  0.00  0.00  0.00
  WSF200WS02003060        1.00   0.00  0.03  0.00  0.35  0.62  0.00  0.00  0.61  0.00
  YS02001580YS02001583    1.00   0.19  0.52  0.00  0.28  0.00  0.00  0.00  0.61  0.00
  YS02001583YS02001586    1.00   0.40  0.27  0.00  0.33  0.00  0.00  0.00  0.62  0.00
  YS02001586YS02001590    1.00   0.13  0.00  0.00  0.47  0.04  0.00  0.36  0.31  0.00
  YS02001590YS02001593    1.00   0.13  0.00  0.00  0.20  0.00  0.67  0.00  0.00  0.00
  YS02001593YS02001596    1.00   0.13  0.00  0.00  0.22  0.01  0.00  0.65  0.01  0.00
  YS02001596YS02001600    1.00   0.13  0.00  0.00  0.26  0.01  0.00  0.60  0.03  0.00
  YS02001600YS02001601    1.00   0.13  0.01  0.00  0.87  0.00  0.00  0.00  0.56  0.00
  YS02001601YS02001602    1.00   0.13  0.01  0.00  0.87  0.00  0.00  0.00  0.00  0.00
  YS02001602YS02001605    1.00   0.13  0.00  0.00  0.87  0.00  0.00  0.00  0.00  0.00
  YS02001605YS02001607    1.00   0.13  0.00  0.00  0.87  0.00  0.00  0.00  0.00  0.00
  YS02001607YS02001610    1.00   0.13  0.00  0.00  0.87  0.00  0.00  0.00  0.01  0.00
  YS02001610YS02001613    1.00   0.13  0.00  0.00  0.87  0.00  0.00  0.00  0.00  0.00
  YS02001613YS02001616    1.00   0.13  0.00  0.00  0.87  0.00  0.00  0.00  0.00  0.00
  YS02001616YS02001619    1.00   0.13  0.00  0.00  0.87  0.00  0.00  0.00  0.00  0.00
  YS02001619YS02001622    1.00   0.13  0.00  0.00  0.87  0.00  0.00  0.00  0.26  0.00
  YS02001622YS02001625    1.00   0.13  0.00  0.00  0.87  0.00  0.00  0.00  0.02  0.00
  YS02001625YS02001629    1.00   0.13  0.03  0.00  0.24  0.00  0.60  0.00  0.00  0.00
  YS02001629YS02163301    1.00   0.14  0.01  0.00  0.85  0.00  0.00  0.00  0.00  0.00
  YS02001633YS02163601    1.00   0.00  0.01  0.00  0.99  0.00  0.00  0.00  0.14  0.00
  YS02001641YS02001644    1.00   0.00  0.01  0.00  0.99  0.00  0.00  0.00  0.00  0.00
  YS02001644YS02001647    1.00   0.00  0.15  0.00  0.85  0.00  0.00  0.00  0.00  0.00
  YS02001647YS02001649    1.00   0.00  0.15  0.00  0.62  0.23  0.00  0.00  0.56  0.00
  YS02001649YS02001757    1.00   0.00  0.00  0.00  0.76  0.24  0.00  0.00  0.38  0.00
  YS02001652YS02001649    1.00   0.00  0.00  0.00  0.98  0.02  0.00  0.00  0.68  0.00
  YS02001655YS02001652    1.00   0.00  0.00  0.00  0.27  0.00  0.00  0.72  0.04  0.00
  YS02001658YS02001655    1.00   0.00  0.13  0.00  0.75  0.11  0.00  0.00  0.60  0.00
  YS02001661YS02001658    1.00   0.13  0.00  0.00  0.59  0.27  0.00  0.00  0.62  0.00
  YS02001664YS02001661    1.00   0.13  0.00  0.00  0.82  0.06  0.00  0.00  0.80  0.00
  YS02001745YS02001748    1.00   0.00  0.00  0.00  0.20  0.00  0.00  0.79  0.03  0.00
  YS02001748YS02001751    1.00   0.00  0.00  0.00  0.91  0.09  0.00  0.00  0.71  0.00
  YS02001751YS02001754    1.00   0.00  0.00  0.00  0.26  0.00  0.00  0.73  0.03  0.00
  YS02001754YS02001757    1.00   0.00  0.00  0.00  1.00  0.00  0.00  0.00  0.73  0.00
  YS02001757CaochengTiaoxuchi    1.00   0.00  0.00  0.00  0.97  0.03  0.00  0.00  0.69  0.00
  YS02001759YS02001757    1.00   0.00  0.00  0.00  0.98  0.02  0.00  0.00  0.64  0.00
  YS02001762YS02001759    1.00   0.00  0.00  0.00  1.00  0.00  0.00  0.00  0.02  0.00
  YS02001765YS02001762    1.00   0.00  0.00  0.00  1.00  0.00  0.00  0.00  0.66  0.00
  YS02001767YS02001765    1.00   0.00  0.00  0.00  1.00  0.00  0.00  0.00  0.00  0.00
  YS02001770YS02001767    1.00   0.00  0.00  0.00  1.00  0.00  0.00  0.00  0.00  0.00
  YS02001774YS02001770    1.00   0.00  0.13  0.00  0.72  0.00  0.15  0.00  0.01  0.00
  YS02001779YS02001774    1.00   0.00  0.00  0.00  1.00  0.00  0.00  0.00  0.69  0.00
  YS02001783YS02001784    1.00   0.00  0.19  0.00  0.81  0.00  0.00  0.00  0.56  0.00
  YS02001784YS02001785    1.00   0.00  0.00  0.00  1.00  0.00  0.00  0.00  0.18  0.00
  YS02001786YS02001788    1.00   0.00  0.00  0.00  0.79  0.21  0.00  0.00  0.00  0.00
  YS02001788YS02001790    1.00   0.00  0.00  0.00  0.22  0.78  0.00  0.00  0.82  0.00
  YS02001790YS02001791    1.00   0.00  0.00  0.00  0.02  0.98  0.00  0.00  0.16  0.00
  YS02001791YS02001793    1.00   0.00  0.00  0.00  0.00  1.00  0.00  0.00  0.01  0.00
  YS02001793JiankangQianchi    1.00   0.00  0.00  0.00  0.97  0.03  0.00  0.00  0.98  0.00
  YS02001882YS02001884    1.00   0.16  0.01  0.00  0.83  0.00  0.00  0.00  0.00  0.00
  YS02001884YS02001887    1.00   0.06  0.05  0.00  0.89  0.00  0.00  0.00  0.00  0.00
  YS02001887YS02001890    1.00   0.00  0.00  0.00  0.97  0.00  0.03  0.00  0.00  0.00
  YS02001890YS02001895    1.00   0.00  0.17  0.00  0.83  0.00  0.00  0.00  0.00  0.00
  YS02001895YS02001898    1.00   0.17  0.00  0.00  0.81  0.00  0.02  0.00  0.00  0.00
  YS02001898YS02001901    1.00   0.17  0.00  0.00  0.82  0.00  0.00  0.00  0.01  0.00
  YS02001901YS02001904    1.00   0.17  0.00  0.00  0.83  0.00  0.00  0.00  0.00  0.00
  YS02001904YS02001907    1.00   0.00  0.17  0.00  0.83  0.00  0.00  0.00  0.00  0.00
  YS02001907YS02006553    1.00   0.00  0.02  0.00  0.98  0.00  0.00  0.00  0.00  0.00
  YS02001910YS02001907    1.00   0.00  0.00  0.00  0.97  0.00  0.00  0.03  0.12  0.00
  YS02001915YS02001910    1.00   0.00  0.00  0.00  0.97  0.03  0.00  0.00  0.17  0.00
  YS02001918YS02001915    1.00   0.00  0.00  0.00  0.98  0.02  0.00  0.00  0.77  0.00
  YS02001920YS02001918    1.00   0.00  0.00  0.00  1.00  0.00  0.00  0.00  0.01  0.00
  YS02001923YS02001920    1.00   0.00  0.00  0.00  1.00  0.00  0.00  0.00  0.94  0.00
  YS02001926YS02001923    1.00   0.00  0.07  0.00  0.05  0.00  0.88  0.00  0.00  0.00
  YS02001929YS02001926    1.00   0.00  0.13  0.00  0.87  0.00  0.00  0.00  0.83  0.00
  YS02006553YS02006556    1.00   0.01  0.00  0.00  0.99  0.00  0.00  0.00  0.03  0.00
  YS02006556YS02006558    1.00   0.00  0.00  0.00  1.00  0.00  0.00  0.00  0.00  0.00
  YS02006558YS02006561    1.00   0.19  0.00  0.00  0.04  0.77  0.00  0.00  0.19  0.00
  YS02006561YS02001783    1.00   0.19  0.00  0.00  0.07  0.74  0.00  0.00  0.70  0.00
  YS02163301YS02001633    1.00   0.00  0.14  0.00  0.86  0.00  0.00  0.00  0.00  0.00
  YS02163601YS02164001    1.00   0.00  0.08  0.00  0.92  0.00  0.00  0.00  0.00  0.00
  YS02164001YS02001641    1.00   0.01  0.07  0.00  0.92  0.00  0.00  0.00  0.05  0.00
  
  
  *************************
  Conduit Surcharge Summary
  *************************
  
  ----------------------------------------------------------------------------
                                                           Hours        Hours 
                         --------- Hours Full --------   Above Full   Capacity
  Conduit                Both Ends  Upstream  Dnstream   Normal Flow   Limited
  ----------------------------------------------------------------------------
  WS02003072WS02003073        0.01      0.01      0.01      1.22         0.01
  WS02004401WS02004402        0.01      0.01      0.01      0.01         0.01
  WS02004402WS02004403        0.01      0.01      0.01      0.01         0.01
  WS02004404WS02004405        0.01      0.01      0.01      3.38         0.01
  WS02004405WS02004406        0.01      0.01      0.01      0.78         0.01
  WS02006109WS02006110        0.85      0.85      2.11      0.93         0.01
  WS02006110WS02006113        0.01      0.01      2.11      0.01         0.01
  WS02006111WS02006112        0.01      0.01      2.33      0.01         0.01
  WS02006112WS02006115        0.01      0.01      0.84      0.01         0.01
  WS02006113WS02006111        0.01      0.01      0.01      0.01         0.01
  WS02006115WS02006116        0.01      0.01      0.01      0.01         0.01
  WS02006116WS02004401        0.01      0.01      0.01      0.01         0.01
  WS02006228WS02006109        2.09      2.12      2.09      2.57         2.09
  WS02006229WS02006228        2.09      2.09      2.09      2.31         2.08
  WS02006230WS02006229        2.19      2.27      2.19      3.99         2.19
  WS02006231WS02006230        0.87      0.87      0.99      3.44         0.01
  WS02006232WS02006231        0.95      0.95      2.12      1.04         0.01
  WS02006234WS02006232        2.05      2.05      2.12      1.01         1.02
  WS02006235WS02006234        1.33      1.33      2.06      3.27         0.02
  WS02006238WS02006235        2.07      2.08      2.12      0.01         0.01
  WS02006239WS02006238        2.09      2.10      2.09      2.20         1.86
  WS02006240WS02006239        2.07      2.09      2.07      2.17         1.73
  WS02006242WS02006240        2.09      2.09      2.13      2.42         0.01
  WS02006243WS02006242        2.08      2.08      2.10      0.01         0.04
  WS02006245WS02006243        2.07      2.07      2.07      1.40         1.35
  WS02006247WS02006245        2.06      2.07      2.06      3.07         2.06
  WS02006248WS02006247        2.06      2.06      2.06      0.01         0.04
  WS02006249WS02006248        2.05      2.05      2.05      3.04         0.01
  WS02006251WS02006249        2.05      2.05      2.05      2.39         1.98
  WS02006252WS02006251        2.49      2.49      2.51      2.49         0.01
  WS02006256WS02006235        3.29      3.35      6.94      1.22         0.01
  YS02001580YS02001583        1.24      1.24      1.33      0.01         0.01
  YS02001583YS02001586        1.25      1.25      1.47      0.01         0.01
  YS02001586YS02001590        1.48      1.48      1.53      0.01         0.01
  YS02001590YS02001593        1.54      1.54      1.55      1.53         0.01
  YS02001593YS02001596        1.55      1.55      1.63      0.01         0.01
  YS02001596YS02001600        1.67      1.67      1.74      0.01         0.01
  YS02001600YS02001601        1.78      1.78      1.97      0.01         0.01
  YS02001601YS02001602        1.90      1.90      2.00      1.72         0.01
  YS02001602YS02001605        1.87      1.87      1.90      2.61         0.01
  YS02001605YS02001607        1.84      1.87      1.85      1.90         1.80
  YS02001607YS02001610        1.53      1.53      1.56      0.01         0.01
  YS02001610YS02001613        1.53      1.53      1.56      0.01         0.01
  YS02001613YS02001616        1.50      1.50      1.53      0.01         0.01
  YS02001616YS02001619        1.49      1.49      1.50      0.31         0.26
  YS02001619YS02001622        1.49      1.49      1.49      1.48         1.34
  YS02001622YS02001625        1.49      1.49      1.63      0.01         0.01
  YS02001625YS02001629        1.46      1.46      1.63      0.01         0.01
  YS02001629YS02163301        1.64      1.64      1.65      0.25         0.11
  YS02001633YS02163601        1.68      1.68      1.71      0.12         0.16
  YS02001641YS02001644        1.62      1.64      1.62      2.03         1.58
  YS02001644YS02001647        1.44      1.44      1.62      0.04         0.01
  YS02001647YS02001649        1.44      1.44      1.55      0.01         0.01
  YS02001649YS02001757        1.55      1.55      1.62      0.13         0.07
  YS02001652YS02001649        1.41      1.41      1.55      0.01         0.01
  YS02001655YS02001652        1.23      1.23      1.40      0.01         0.01
  YS02001658YS02001655        0.70      0.70      1.23      0.01         0.01
  YS02001661YS02001658        0.29      0.29      0.70      0.01         0.01
  YS02001664YS02001661        0.12      0.12      0.35      0.01         0.01
  YS02001745YS02001748        0.11      0.11      0.55      0.01         0.01
  YS02001748YS02001751        0.66      0.66      1.06      0.01         0.01
  YS02001751YS02001754        1.06      1.06      1.35      0.01         0.01
  YS02001754YS02001757        1.37      1.37      1.62      0.01         0.01
  YS02001757CaochengTiaoxuchi        1.55      1.62      2.02      0.66         0.54
  YS02001759YS02001757        1.54      1.54      1.62      0.08         0.09
  YS02001762YS02001759        1.52      1.52      1.54      0.01         0.02
  YS02001765YS02001762        1.48      1.48      1.52      0.01         0.01
  YS02001767YS02001765        1.45      1.45      1.48      0.01         0.03
  YS02001770YS02001767        1.45      1.45      1.45      0.95         0.85
  YS02001774YS02001770        1.43      1.43      1.50      0.01         0.01
  YS02001779YS02001774        1.35      1.35      1.50      0.01         0.01
  YS02001783YS02001784        0.42      0.44      0.42      0.58         0.42
  YS02001784YS02001785        0.31      0.42      0.31      0.79         0.31
  YS02001786YS02001788        0.01      0.31      0.01      0.68         0.01
  YS02001790YS02001791        0.01      0.01      0.01      0.41         0.01
  YS02001793JiankangQianchi        0.01      0.01      6.64      0.01         0.01
  YS02001882YS02001884        0.39      0.39      0.40      0.01         0.01
  YS02001884YS02001887        0.42      0.42      0.43      0.01         0.01
  YS02001887YS02001890        0.44      0.44      0.45      0.05         0.01
  YS02001890YS02001895        0.38      0.38      0.47      0.01         0.01
  YS02001895YS02001898        0.38      0.38      0.38      0.01         0.01
  YS02001898YS02001901        0.38      0.38      0.42      0.01         0.01
  YS02001901YS02001904        0.41      0.41      0.42      0.01         0.01
  YS02001904YS02001907        0.41      0.41      0.66      0.01         0.01
  YS02001907YS02006553        0.81      0.81      0.87      0.01         0.01
  YS02001910YS02001907        0.47      0.47      0.65      0.01         0.01
  YS02001915YS02001910        0.39      0.39      0.47      0.01         0.01
  YS02001918YS02001915        0.31      0.31      0.39      0.01         0.01
  YS02001920YS02001918        0.31      0.31      0.32      0.01         0.01
  YS02001923YS02001920        0.27      0.27      0.32      0.01         0.01
  YS02001926YS02001923        0.02      0.02      0.03      0.01         0.01
  YS02001929YS02001926        0.01      0.01      0.03      0.01         0.01
  YS02006553YS02006556        0.56      0.56      0.66      0.01         0.01
  YS02006556YS02006558        0.61      0.61      0.68      0.01         0.01
  YS02006558YS02006561        0.34      0.54      0.34      0.75         0.34
  YS02006561YS02001783        0.27      0.27      0.44      0.01         0.01
  YS02163301YS02001633        1.65      1.65      1.69      0.09         0.01
  YS02163601YS02164001        1.64      1.64      1.71      0.10         0.01
  YS02164001YS02001641        1.64      1.64      1.64      0.97         0.93
  
  
  ***************
  Pumping Summary
  ***************
  
  ---------------------------------------------------------------------------------------------------------
                                                  Min       Avg       Max     Total     Power    % Time Off
                        Percent   Number of      Flow      Flow      Flow    Volume     Usage    Pump Curve
  Pump                 Utilized   Start-Ups       LPS       LPS       LPS  10^6 ltr     Kw-hr    Low   High
  ---------------------------------------------------------------------------------------------------------
  CC-R1                   33.03          16      0.00    683.00    683.00     6.496    123.36    0.0   28.7
  CC-R2                   27.87          18      0.00    683.00    683.00     5.481    105.29    0.0   24.0
  CC-S1                   36.13          21      0.00    200.00    200.00     2.081     10.92    0.0    4.7
  CC-S2                   34.82          24      0.00    200.00    200.00     2.005     10.51    0.0    4.9
  JK-R1                    5.06          19      0.00   1000.00   1000.00     1.459     12.98    0.0    0.0
  JK-R2                    3.28          14      0.00   1000.00   1000.00     0.944      7.46    0.0    0.0
  JK-S                    14.89          36      0.00    300.00    300.00     1.286     23.28    0.0    0.0
  

  Analysis begun on:  Fri Aug  4 09:50:51 2023
  Analysis ended on:  Fri Aug  4 09:50:56 2023
  Total elapsed time: 00:00:05