
  OWA STORM WATER MANAGEMENT MODEL - VERSION v5.2.3 (OWA 2023-06-06)
  ------------------------------------------------------------

  WARNING 04: minimum elevation drop used for Conduit WS02004404WS02004405
  WARNING 03: negative offset ignored for Link YS02001904YS02001907
  
  ****************
  Analysis Options
  ****************
  Flow Units ............... LPS
  Process Models:
    Rainfall/Runoff ........ YES
    RDII ................... NO
    Snowmelt ............... NO
    Groundwater ............ NO
    Flow Routing ........... YES
    Ponding Allowed ........ NO
    Water Quality .......... NO
  Infiltration Method ...... HORTON
  Flow Routing Method ...... DYNWAVE
  Surcharge Method ......... EXTRAN
  Starting Date ............ 08/28/2015 08:00:00
  Ending Date .............. 08/28/2015 16:00:00
  Antecedent Dry Days ...... 8.0
  Report Time Step ......... 00:01:00
  Wet Time Step ............ 00:01:00
  Dry Time Step ............ 00:01:00
  Routing Time Step ........ 30.00 sec
  Variable Time Step ....... YES
  Maximum Trials ........... 8
  Number of Threads ........ 2
  Head Tolerance ........... 0.001500 m
  
  
  **************************        Volume         Depth
  Runoff Quantity Continuity     hectare-m            mm
  **************************     ---------       -------
  Total Precipitation ......         2.397        72.264
  Evaporation Loss .........         0.000         0.000
  Infiltration Loss ........         0.104         3.136
  Surface Runoff ...........         2.260        68.147
  Final Storage ............         0.033         0.996
  Continuity Error (%) .....        -0.021
  
  
  **************************        Volume        Volume
  Flow Routing Continuity        hectare-m      10^6 ltr
  **************************     ---------     ---------
  Dry Weather Inflow .......         0.025         0.251
  Wet Weather Inflow .......         2.261        22.606
  Groundwater Inflow .......         0.000         0.000
  RDII Inflow ..............         0.000         0.000
  External Inflow ..........         0.083         0.834
  External Outflow .........         1.732        17.317
  Flooding Loss ............         0.731         7.306
  Evaporation Loss .........         0.000         0.000
  Exfiltration Loss ........         0.000         0.000
  Initial Stored Volume ....         0.243         2.431
  Final Stored Volume ......         0.182         1.821
  Continuity Error (%) .....        -1.234
  
  
  *************************
  Highest Continuity Errors
  *************************
  Node YS02001884 (4.70%)
  Node WS02006256 (-4.37%)
  Node YS02001583 (-2.80%)
  
  
  ***************************
  Time-Step Critical Elements
  ***************************
  Link WS02006252WS02006251 (38.99%)
  Link WS02006238WS02006235 (19.33%)
  Link WS02004404WS02004405 (12.44%)
  Link YS02001791YS02001793 (7.29%)
  Link WS02006235WS02006234 (6.17%)
  
  
  ********************************
  Highest Flow Instability Indexes
  ********************************
  Link WS02006113WS02006111 (40)
  Link WS02006256WS02006235 (21)
  Link WS02006238WS02006235 (19)
  Link WS02006111WS02006112 (15)
  Link WS02006252WS02006251 (14)
  
  
  *********************************
  Most Frequent Nonconverging Nodes
  *********************************
  Node CC-1 (14.14%)
  Node CC-2 (14.14%)
  Node JK-1 (14.14%)
  Node JK-2 (14.14%)
  Node WSC (14.14%)
  
  
  *************************
  Routing Time Step Summary
  *************************
  Minimum Time Step           :     0.01 sec
  Average Time Step           :     2.34 sec
  Maximum Time Step           :    30.00 sec
  % of Time in Steady State   :     0.00
  Average Iterations per Step :     3.36
  % of Steps Not Converging   :    14.14
  Time Step Frequencies       :
     30.000 - 13.228 sec      :     0.01 %
     13.228 -  5.833 sec      :    10.52 %
      5.833 -  2.572 sec      :    24.96 %
      2.572 -  1.134 sec      :    20.66 %
      1.134 -  0.500 sec      :    43.85 %
  
  
  ***************************
  Subcatchment Runoff Summary
  ***************************
  
  ------------------------------------------------------------------------------------------------------------------------------
                            Total      Total      Total      Total     Imperv       Perv      Total       Total     Peak  Runoff
                           Precip      Runon       Evap      Infil     Runoff     Runoff     Runoff      Runoff   Runoff   Coeff
  Subcatchment                 mm         mm         mm         mm         mm         mm         mm    10^6 ltr      LPS
  ------------------------------------------------------------------------------------------------------------------------------
  sub60                     72.26       0.00       0.00       1.86      62.39       6.82      69.21        0.91   632.25   0.958
  sub61                     72.26       0.00       0.00       2.70      58.85       9.59      68.44        1.26   879.85   0.947
  sub62                     72.26       0.00       0.00       1.24      65.20       4.55      69.74        1.91  1241.64   0.965
  sub63                     72.26       0.00       0.00       5.02      50.34      15.94      66.28        1.50  1010.21   0.917
  sub64                     72.26       0.00       0.00       2.53      60.22       8.31      68.53        1.65  1022.90   0.948
  sub65                     72.26       0.00       0.00       2.19      61.62       7.20      68.82        1.89  1143.15   0.952
  sub66                     72.26       0.00       0.00       6.27      50.23      14.69      64.92        3.03  1556.92   0.898
  sub67                     72.26       0.00       0.00       1.19      65.24       4.60      69.84        1.30   939.24   0.966
  sub68                     72.26       0.00       0.00       2.24      60.96       7.88      68.84        1.89  1274.23   0.953
  sub69                     72.26       0.00       0.00       2.03      61.31       8.81      70.12        2.60  1517.98   0.970
  sub70                     72.26       0.00       0.00       6.82      47.53      17.75      65.28        1.89   875.27   0.903
  sub71                     72.26       0.00       0.00       1.27      65.16       4.51      69.66        1.82  1101.54   0.964
  sub72                     72.26       0.00       0.00       1.14      65.80       3.92      69.72        0.96   537.45   0.965
  
  
  ******************
  Node Depth Summary
  ******************
  
  ---------------------------------------------------------------------------------
                                 Average  Maximum  Maximum  Time of Max    Reported
                                   Depth    Depth      HGL   Occurrence   Max Depth
  Node                 Type       Meters   Meters   Meters  days hr:min      Meters
  ---------------------------------------------------------------------------------
  WS02003060           JUNCTION     0.22     0.38     5.31     0  02:52        0.38
  WS02003066           JUNCTION     0.18     0.30     5.85     0  02:52        0.30
  WS02003067           JUNCTION     0.48     0.70     6.02     0  02:52        0.70
  WS02003069           JUNCTION     0.24     0.43     5.01     0  02:53        0.43
  WS02003072           JUNCTION     0.30     0.50     4.87     0  02:53        0.50
  WS02003073           JUNCTION     0.17     0.30     4.36     0  02:54        0.30
  WS02004401           JUNCTION     0.57     0.85     6.85     0  02:49        0.85
  WS02004402           JUNCTION     0.60     0.88     6.84     0  02:47        0.88
  WS02004403           JUNCTION     0.63     0.89     6.82     0  02:48        0.89
  WS02004404           JUNCTION     0.71     0.96     6.81     0  02:48        0.96
  WS02004405           JUNCTION     0.70     0.95     6.80     0  02:48        0.95
  WS02004406           JUNCTION     0.72     0.96     6.79     0  02:48        0.96
  WS02004407           JUNCTION     0.16     0.30     6.61     0  02:48        0.30
  WS02004409           JUNCTION     0.37     0.67     6.44     0  02:51        0.67
  WS02004410           JUNCTION     0.39     0.68     6.40     0  02:51        0.68
  WS02004411           JUNCTION     0.42     0.69     6.37     0  02:51        0.69
  WS02004412           JUNCTION     0.44     0.70     6.34     0  02:52        0.70
  WS02004413           JUNCTION     0.60     0.86     6.33     0  02:52        0.86
  WS02006109           JUNCTION     0.62     1.44     8.06     0  02:56        1.44
  WS02006110           JUNCTION     0.62     1.14     7.72     0  02:56        1.14
  WS02006111           JUNCTION     0.16     0.90     7.60     0  00:00        0.40
  WS02006112           JUNCTION     0.72     2.68     8.56     0  00:00        1.14
  WS02006113           JUNCTION     0.25     1.40     8.29     0  00:00        0.46
  WS02006115           JUNCTION     0.45     1.65     7.79     0  00:00        0.86
  WS02006116           JUNCTION     0.54     1.06     7.10     0  00:00        0.83
  WS02006228           JUNCTION     0.60     1.50     8.15     0  02:56        1.50
  WS02006229           JUNCTION     0.57     1.40     8.09     0  02:56        1.40
  WS02006230           JUNCTION     0.56     1.32     8.07     0  02:55        1.15
  WS02006231           JUNCTION     0.38     1.07     8.19     0  02:37        0.91
  WS02006232           JUNCTION     0.51     1.20     8.24     0  02:30        1.11
  WS02006234           JUNCTION     0.43     1.40     8.55     0  02:55        1.32
  WS02006235           JUNCTION     0.46     1.53     8.69     0  02:55        1.50
  WS02006238           JUNCTION     0.49     1.57     8.72     0  02:55        1.53
  WS02006239           JUNCTION     0.45     1.52     8.73     0  03:27        1.52
  WS02006240           JUNCTION     0.41     1.62     8.92     0  03:27        1.62
  WS02006242           JUNCTION     0.48     1.55     8.82     0  03:27        1.55
  WS02006243           JUNCTION     0.39     1.31     8.73     0  02:55        1.30
  WS02006245           JUNCTION     0.40     1.24     8.72     0  02:55        1.15
  WS02006247           JUNCTION     0.42     1.21     8.71     0  02:55        1.15
  WS02006248           JUNCTION     0.38     1.10     8.69     0  02:37        1.09
  WS02006249           JUNCTION     0.41     1.09     8.69     0  02:22        1.09
  WS02006251           JUNCTION     0.41     1.37     9.04     0  02:22        1.13
  WS02006252           JUNCTION     0.30     1.50     9.74     0  02:16        0.68
  WS02006256           JUNCTION     0.94     2.35     9.28     0  00:05        2.35
  WSF200               JUNCTION     0.15     0.29     5.52     0  02:52        0.29
  YS02001580           JUNCTION     0.12     1.05     9.59     0  02:09        0.77
  YS02001583           JUNCTION     0.15     1.14     9.64     0  02:09        0.82
  YS02001586           JUNCTION     0.26     1.13     9.30     0  02:09        1.13
  YS02001590           JUNCTION     0.37     1.39     9.25     0  02:09        1.37
  YS02001593           JUNCTION     0.30     1.33     9.19     0  02:05        1.28
  YS02001596           JUNCTION     0.41     1.68     9.10     0  02:09        1.65
  YS02001600           JUNCTION     0.50     1.87     9.00     0  02:09        1.87
  YS02001601           JUNCTION     0.70     2.06     8.90     0  02:08        2.06
  YS02001602           JUNCTION     0.60     1.87     8.77     0  02:13        1.87
  YS02001605           JUNCTION     0.56     1.78     8.68     0  02:20        1.78
  YS02001607           JUNCTION     0.53     1.65     8.49     0  02:21        1.64
  YS02001610           JUNCTION     0.57     1.68     8.48     0  02:14        1.68
  YS02001613           JUNCTION     0.53     1.70     8.54     0  02:20        1.70
  YS02001616           JUNCTION     0.46     1.61     8.52     0  02:20        1.61
  YS02001619           JUNCTION     0.44     1.61     8.54     0  02:20        1.61
  YS02001622           JUNCTION     0.43     1.58     8.48     0  02:25        1.57
  YS02001625           JUNCTION     0.68     1.78     8.38     0  02:14        1.78
  YS02001629           JUNCTION     0.57     1.85     8.40     0  02:16        1.85
  YS02001633           JUNCTION     0.64     2.08     8.53     0  02:20        2.08
  YS02001641           JUNCTION     0.61     1.95     8.39     0  02:20        1.95
  YS02001644           JUNCTION     0.60     1.92     8.35     0  02:18        1.92
  YS02001647           JUNCTION     0.37     1.83     8.44     0  02:20        1.83
  YS02001649           JUNCTION     0.42     2.04     8.43     0  02:20        2.04
  YS02001652           JUNCTION     0.29     1.85     8.45     0  02:20        1.85
  YS02001655           JUNCTION     0.22     1.64     8.49     0  02:24        1.64
  YS02001658           JUNCTION     0.16     1.41     8.56     0  02:24        1.40
  YS02001661           JUNCTION     0.18     1.20     8.61     0  02:24        1.19
  YS02001664           JUNCTION     0.08     0.67     8.59     0  02:24        0.65
  YS02001745           JUNCTION     0.09     0.88     8.40     0  02:24        0.88
  YS02001748           JUNCTION     0.15     1.44     8.52     0  02:19        1.30
  YS02001751           JUNCTION     0.19     1.96     8.84     0  02:20        1.96
  YS02001754           JUNCTION     0.25     2.20     8.81     0  02:20        2.20
  YS02001757           JUNCTION     0.44     2.21     8.47     0  02:20        2.21
  YS02001759           JUNCTION     0.37     2.21     8.57     0  02:20        2.21
  YS02001762           JUNCTION     0.36     2.15     8.55     0  02:20        2.15
  YS02001765           JUNCTION     0.34     2.10     8.55     0  02:20        2.10
  YS02001767           JUNCTION     0.34     2.03     8.52     0  02:20        2.03
  YS02001770           JUNCTION     0.35     1.95     8.45     0  02:20        1.95
  YS02001774           JUNCTION     0.41     2.05     8.47     0  02:20        2.05
  YS02001779           JUNCTION     0.24     1.68     8.37     0  02:15        1.68
  YS02001783           JUNCTION     0.31     1.36     7.50     0  02:15        1.23
  YS02001784           JUNCTION     0.32     1.17     7.24     0  02:15        1.12
  YS02001786           JUNCTION     0.27     0.91     6.94     0  02:15        0.88
  YS02001788           JUNCTION     0.19     0.63     6.60     0  02:23        0.62
  YS02001790           JUNCTION     0.23     0.73     6.37     0  02:24        0.73
  YS02001791           JUNCTION     0.14     0.44     5.91     0  02:29        0.43
  YS02001793           JUNCTION     0.07     0.28     5.11     0  02:37        0.26
  YS02001882           JUNCTION     0.38     1.83     8.54     0  02:20        1.83
  YS02001884           JUNCTION     0.47     1.93     8.55     0  02:20        1.93
  YS02001887           JUNCTION     0.54     1.96     8.50     0  02:20        1.96
  YS02001890           JUNCTION     0.57     1.81     8.32     0  02:15        1.81
  YS02001895           JUNCTION     0.35     1.58     8.32     0  02:15        1.56
  YS02001898           JUNCTION     0.35     1.58     8.32     0  02:15        1.56
  YS02001901           JUNCTION     0.46     1.69     8.30     0  02:15        1.69
  YS02001904           JUNCTION     0.45     1.64     8.27     0  02:15        1.63
  YS02001907           JUNCTION     0.76     1.96     8.25     0  02:15        1.96
  YS02001910           JUNCTION     0.56     1.97     8.48     0  02:15        1.93
  YS02001915           JUNCTION     0.38     2.00     8.72     0  02:20        2.00
  YS02001918           JUNCTION     0.21     1.81     8.88     0  02:15        1.73
  YS02001920           JUNCTION     0.29     2.14     9.15     0  02:16        1.73
  YS02001923           JUNCTION     0.16     2.03     9.29     0  02:16        1.38
  YS02001926           JUNCTION     0.20     1.90     9.35     0  02:16        1.22
  YS02001929           JUNCTION     0.11     1.78     9.47     0  02:16        0.98
  YS02006553           JUNCTION     0.76     1.99     8.27     0  02:20        1.98
  YS02006556           JUNCTION     0.73     2.12     8.43     0  02:20        2.12
  YS02006558           JUNCTION     0.78     2.38     8.65     0  02:20        2.38
  YS02006561           JUNCTION     0.19     1.09     7.75     0  02:15        0.90
  YS02163301           JUNCTION     0.59     1.91     8.43     0  02:24        1.91
  YS02163601           JUNCTION     0.67     2.06     8.46     0  02:20        2.06
  YS02164001           JUNCTION     0.60     2.10     8.56     0  02:20        2.10
  CC-1                 OUTFALL      0.00     0.00     0.00     0  00:00        0.00
  CC-2                 OUTFALL      0.00     0.00     0.00     0  00:00        0.00
  JK-1                 OUTFALL      0.00     0.00     0.00     0  00:00        0.00
  JK-2                 OUTFALL      0.00     0.00     0.00     0  00:00        0.00
  WSC                  OUTFALL      0.17     0.30     0.97     0  02:54        0.30
  CC-storage           STORAGE      0.81     1.71     7.21     0  02:48        1.71
  JK-storage           STORAGE      1.53     4.22     5.02     0  02:37        4.16
  
  
  *******************
  Node Inflow Summary
  *******************
  
  -------------------------------------------------------------------------------------------------
                                  Maximum  Maximum                  Lateral       Total        Flow
                                  Lateral    Total  Time of Max      Inflow      Inflow     Balance
                                   Inflow   Inflow   Occurrence      Volume      Volume       Error
  Node                 Type           LPS      LPS  days hr:min    10^6 ltr    10^6 ltr     Percent
  -------------------------------------------------------------------------------------------------
  WS02003060           JUNCTION     16.53   552.34     0  02:52       0.476         4.5       0.057
  WS02003066           JUNCTION      0.00   535.77     0  02:52           0        4.03       0.035
  WS02003067           JUNCTION      0.00   535.75     0  02:52           0        4.03       0.105
  WS02003069           JUNCTION      0.32   552.64     0  02:53     0.00922        4.51       0.090
  WS02003072           JUNCTION      0.00   552.60     0  02:53           0        4.51       0.158
  WS02003073           JUNCTION      1.82   554.40     0  02:54      0.0524        4.55       0.130
  WS02004401           JUNCTION      0.00  1677.78     0  00:00           0        4.15       0.281
  WS02004402           JUNCTION      0.00  1171.33     0  00:01           0        4.13       0.275
  WS02004403           JUNCTION      0.00   884.75     0  00:01           0        4.12       0.267
  WS02004404           JUNCTION      0.16   832.59     0  00:01     0.00467        4.11       0.218
  WS02004405           JUNCTION      0.04   776.49     0  00:01      0.0011         4.1       0.313
  WS02004406           JUNCTION      0.00   711.76     0  00:02           0        4.09       0.537
  WS02004407           JUNCTION      0.00   536.13     0  02:48           0        4.07       0.030
  WS02004409           JUNCTION      0.00   536.07     0  02:48           0        4.07       0.070
  WS02004410           JUNCTION      0.00   535.93     0  02:50           0        4.07       0.114
  WS02004411           JUNCTION      0.00   535.85     0  02:51           0        4.06       0.146
  WS02004412           JUNCTION      0.00   535.81     0  02:51           0        4.06       0.188
  WS02004413           JUNCTION      0.00   535.78     0  02:51           0        4.05       0.339
  WS02006109           JUNCTION      1.23  1308.01     0  00:00      0.0354        4.08       0.202
  WS02006110           JUNCTION      0.00   554.63     0  02:31           0        4.05      -0.881
  WS02006111           JUNCTION      0.00  1176.04     0  00:00           0        4.08      -0.944
  WS02006112           JUNCTION      0.00  2307.30     0  00:00           0        4.12      -0.006
  WS02006113           JUNCTION      0.00   580.24     0  02:56           0        4.04      -1.212
  WS02006115           JUNCTION      0.00   899.27     0  00:00           0        4.09      -0.782
  WS02006116           JUNCTION      0.00  1098.16     0  00:01           0        4.12      -0.557
  WS02006228           JUNCTION      0.00   553.40     0  02:55           0        4.02       0.087
  WS02006229           JUNCTION      0.00   553.57     0  02:55           0        4.01       0.247
  WS02006230           JUNCTION     10.28   585.74     0  02:37       0.296        3.99      -0.004
  WS02006231           JUNCTION      0.00   581.88     0  02:55           0        3.69       0.109
  WS02006232           JUNCTION      0.00   580.67     0  02:55           0        3.69       0.171
  WS02006234           JUNCTION      0.00   574.33     0  02:55           0        3.68      -0.363
  WS02006235           JUNCTION      0.00   564.05     0  02:55           0         3.8       0.337
  WS02006238           JUNCTION      0.00   423.23     0  03:27           0         3.1      -0.234
  WS02006239           JUNCTION      0.00   422.69     0  03:27           0        3.01      -0.234
  WS02006240           JUNCTION      0.00   422.66     0  03:36           0        2.97      -0.045
  WS02006242           JUNCTION      0.00   423.42     0  03:36           0        2.96       0.007
  WS02006243           JUNCTION      0.00   425.59     0  03:36           0        2.94      -0.383
  WS02006245           JUNCTION      0.00   426.39     0  03:36           0        2.96       0.487
  WS02006247           JUNCTION      0.00   426.03     0  03:36           0        2.96      -0.017
  WS02006248           JUNCTION      0.00   425.56     0  03:36           0        2.95      -0.174
  WS02006249           JUNCTION      0.00   473.38     0  01:55           0        3.11       0.763
  WS02006251           JUNCTION      0.08   406.54     0  02:22     0.00222        3.11       0.036
  WS02006252           JUNCTION      0.00   400.00     0  01:20           0        3.09      -0.439
  WS02006256           JUNCTION      0.00   300.00     0  00:05           0       0.995      -4.190
  WSF200               JUNCTION      0.00   535.77     0  02:52           0        4.03       0.013
  YS02001580           JUNCTION      0.00    79.74     0  02:09           0     0.00414      -0.976
  YS02001583           JUNCTION      0.00   104.22     0  02:08           0      0.0159      -2.727
  YS02001586           JUNCTION    875.27   875.30     0  02:26        1.89         1.9       0.048
  YS02001590           JUNCTION      0.00   320.18     0  02:20           0        1.43      -0.029
  YS02001593           JUNCTION      0.00   318.81     0  02:20           0        1.43       0.002
  YS02001596           JUNCTION      0.00   318.13     0  02:45           0        1.43      -0.011
  YS02001600           JUNCTION      0.00   318.07     0  02:20           0        1.43       0.028
  YS02001601           JUNCTION   1517.98  1835.45     0  02:25         2.6        4.03       0.011
  YS02001602           JUNCTION      0.00   491.92     0  02:08           0        2.45       0.018
  YS02001605           JUNCTION      0.00   492.27     0  02:08           0        2.33       0.022
  YS02001607           JUNCTION      0.00   492.31     0  02:08           0        2.33       0.082
  YS02001610           JUNCTION      0.00   876.31     0  02:26           0        2.64       0.083
  YS02001613           JUNCTION      0.00   540.18     0  02:26           0        2.14       0.074
  YS02001616           JUNCTION      0.00   539.35     0  02:26           0        2.14       0.016
  YS02001619           JUNCTION   1556.92  1556.92     0  02:26        3.03        4.85       0.000
  YS02001622           JUNCTION      0.00  1024.32     0  02:25           0        4.54       0.001
  YS02001625           JUNCTION      0.00  1456.73     0  02:26           0        4.81       0.200
  YS02001629           JUNCTION      0.00   928.12     0  02:14           0        3.74       0.022
  YS02001633           JUNCTION   1143.35  1335.55     0  02:14         1.9        5.35       0.064
  YS02001641           JUNCTION      0.00  1334.14     0  02:14           0        5.05       0.054
  YS02001644           JUNCTION   1022.94  1703.47     0  02:14        1.65         6.7       0.051
  YS02001647           JUNCTION      0.00  1703.87     0  02:14           0         6.1       0.006
  YS02001649           JUNCTION      0.00  1958.82     0  02:15           0        7.61       0.003
  YS02001652           JUNCTION      0.00  1022.93     0  02:25           0        1.51      -0.072
  YS02001655           JUNCTION      0.15  1023.13     0  02:25     0.00443        1.51      -0.031
  YS02001658           JUNCTION      0.00  1022.64     0  02:25           0         1.5      -0.015
  YS02001661           JUNCTION      0.00  1024.25     0  02:25           0         1.5       0.014
  YS02001664           JUNCTION   1010.21  1010.21     0  02:25         1.5         1.5      -0.007
  YS02001745           JUNCTION    632.26   632.26     0  02:25        0.91        0.91       0.147
  YS02001748           JUNCTION      0.04   638.62     0  02:25      0.0013        0.91      -0.248
  YS02001751           JUNCTION      0.01   638.32     0  02:25    0.000317       0.915       0.037
  YS02001754           JUNCTION      0.26   639.31     0  02:25     0.00749       0.924      -0.152
  YS02001757           JUNCTION      0.00  3227.17     0  02:20           0        11.5       0.034
  YS02001759           JUNCTION    879.89  1348.31     0  02:25        1.26        2.92      -0.014
  YS02001762           JUNCTION      0.00   726.14     0  02:20           0        1.66       0.004
  YS02001765           JUNCTION      0.00   725.34     0  02:20           0        1.66       0.000
  YS02001767           JUNCTION      0.54   727.99     0  02:20      0.0154        1.66       0.012
  YS02001770           JUNCTION   1241.80  1241.80     0  02:25        1.92        1.96      -0.011
  YS02001774           JUNCTION      0.00   774.83     0  02:25           0       0.338       0.310
  YS02001779           JUNCTION      0.01   776.08     0  02:25    0.000144       0.293      -0.064
  YS02001783           JUNCTION      0.00  1166.57     0  02:24           0        4.38       0.006
  YS02001784           JUNCTION      1.06  1167.71     0  02:23      0.0305        4.41       0.013
  YS02001786           JUNCTION      0.06  1167.53     0  02:24     0.00162        4.41       0.015
  YS02001788           JUNCTION      0.07  1168.39     0  02:23     0.00204        4.42       0.007
  YS02001790           JUNCTION      0.15  1181.40     0  02:23     0.00446        4.42       0.024
  YS02001791           JUNCTION      0.00  1292.05     0  02:24           0        4.42      -0.026
  YS02001793           JUNCTION      0.00  1250.51     0  02:25           0        4.42       0.003
  YS02001882           JUNCTION      0.00    40.34     0  02:12           0      0.0129       4.148
  YS02001884           JUNCTION      0.00    38.83     0  02:10           0      0.0489       4.927
  YS02001887           JUNCTION    939.69   939.72     0  02:25        1.31        1.35       0.330
  YS02001890           JUNCTION      0.00   939.87     0  02:25           0         1.3       0.399
  YS02001895           JUNCTION      0.00   517.48     0  02:27           0        1.17       0.127
  YS02001898           JUNCTION      0.00   517.63     0  02:27           0        1.17       0.001
  YS02001901           JUNCTION      0.00   517.06     0  02:27           0        1.17       0.286
  YS02001904           JUNCTION      0.00   517.04     0  02:27           0        1.17       0.238
  YS02001907           JUNCTION      0.00  2269.03     0  02:25           0        4.04       0.445
  YS02001910           JUNCTION      0.00  1645.30     0  02:25           0        2.86       0.247
  YS02001915           JUNCTION   1101.56  1645.29     0  02:25        1.82        2.89       0.049
  YS02001918           JUNCTION      0.00   548.58     0  02:25           0        1.08       0.004
  YS02001920           JUNCTION      2.87   549.04     0  02:25      0.0827        1.07       0.078
  YS02001923           JUNCTION      0.04   545.29     0  02:25     0.00109       0.977      -0.038
  YS02001926           JUNCTION      0.05   545.02     0  02:25      0.0015       0.964       0.007
  YS02001929           JUNCTION    537.45   537.45     0  02:26       0.959       0.959      -0.017
  YS02006553           JUNCTION      0.00   802.62     0  02:39           0        2.54       0.466
  YS02006556           JUNCTION      0.00   802.66     0  02:39           0        2.54       0.308
  YS02006558           JUNCTION   1275.11  1275.11     0  02:25        1.92        4.43       0.081
  YS02006561           JUNCTION      0.00  1166.73     0  02:24           0        4.38      -0.004
  YS02163301           JUNCTION      0.00   928.05     0  02:14           0        3.74       0.040
  YS02163601           JUNCTION      0.11  1335.48     0  02:14     0.00317        5.05       0.100
  YS02164001           JUNCTION      0.00  1334.64     0  02:14           0        5.05       0.044
  CC-1                 OUTFALL       0.00   683.00     0  00:10           0         4.4       0.000
  CC-2                 OUTFALL       0.00   683.00     0  00:05           0        4.81       0.000
  JK-1                 OUTFALL       0.00  1000.00     0  01:35           0        1.48       0.000
  JK-2                 OUTFALL       0.00  1000.00     0  00:05           0        2.08       0.000
  WSC                  OUTFALL       0.00   554.36     0  02:54           0        4.55       0.000
  CC-storage           STORAGE       0.00  3231.33     0  02:20           0        13.7      -0.223
  JK-storage           STORAGE       0.00  1248.62     0  02:25           0        4.57      -0.371
  
  
  **********************
  Node Surcharge Summary
  **********************
  
  Surcharging occurs when water rises above the top of the highest conduit.
  ---------------------------------------------------------------------
                                               Max. Height   Min. Depth
                                   Hours       Above Crown    Below Rim
  Node                 Type      Surcharged         Meters       Meters
  ---------------------------------------------------------------------
  WS02006109           JUNCTION        1.42          0.622        1.198
  WS02006110           JUNCTION        0.45          0.227        1.623
  WS02006111           JUNCTION        0.01          0.087        1.783
  WS02006112           JUNCTION        0.45          1.680        0.000
  WS02006113           JUNCTION        0.01          0.600        1.330
  WS02006115           JUNCTION        0.01          0.642        1.608
  WS02006116           JUNCTION        0.01          0.000        2.290
  WS02006228           JUNCTION        1.41          0.666        1.534
  WS02006229           JUNCTION        1.42          0.596        1.854
  WS02006230           JUNCTION        0.46          0.244        1.326
  WS02006231           JUNCTION        0.52          0.359        1.171
  WS02006232           JUNCTION        1.44          0.500        0.980
  WS02006234           JUNCTION        0.81          0.677        0.563
  WS02006235           JUNCTION        1.40          0.821        0.469
  WS02006238           JUNCTION        1.43          0.852        0.578
  WS02006239           JUNCTION        1.40          0.779        0.511
  WS02006240           JUNCTION        1.41          0.915        0.475
  WS02006242           JUNCTION        1.42          0.820        0.000
  WS02006243           JUNCTION        1.41          0.597        0.173
  WS02006245           JUNCTION        1.40          0.527        0.323
  WS02006247           JUNCTION        1.40          0.499        0.261
  WS02006248           JUNCTION        1.39          0.380        0.000
  WS02006249           JUNCTION        1.39          0.390        0.000
  WS02006251           JUNCTION        0.58          0.341        0.839
  WS02006252           JUNCTION        1.72          1.100        0.000
  WS02006256           JUNCTION        6.90          2.050        0.000
  YS02001580           JUNCTION        0.68          0.450        0.000
  YS02001583           JUNCTION        0.69          0.500        0.000
  YS02001586           JUNCTION        0.81          0.510        0.000
  YS02001590           JUNCTION        0.90          0.742        0.008
  YS02001593           JUNCTION        0.90          0.708        0.132
  YS02001596           JUNCTION        1.03          0.950        0.120
  YS02001600           JUNCTION        1.19          1.190        0.000
  YS02001601           JUNCTION        1.56          1.440        0.000
  YS02001602           JUNCTION        1.43          1.270        0.000
  YS02001605           JUNCTION        1.38          1.180        0.000
  YS02001607           JUNCTION        0.88          0.646        0.034
  YS02001610           JUNCTION        0.91          0.680        0.000
  YS02001613           JUNCTION        0.88          0.700        0.000
  YS02001616           JUNCTION        0.83          0.610        0.000
  YS02001619           JUNCTION        0.81          0.610        0.000
  YS02001622           JUNCTION        0.81          0.580        0.040
  YS02001625           JUNCTION        1.00          0.780        0.000
  YS02001629           JUNCTION        0.74          0.470        0.000
  YS02001633           JUNCTION        1.03          1.060        0.000
  YS02001641           JUNCTION        0.96          0.953        0.147
  YS02001644           JUNCTION        0.93          0.920        0.000
  YS02001647           JUNCTION        0.68          0.829        0.071
  YS02001649           JUNCTION        0.80          1.039        0.011
  YS02001652           JUNCTION        0.60          0.825        0.305
  YS02001655           JUNCTION        0.44          0.644        0.556
  YS02001658           JUNCTION        0.26          0.414        0.886
  YS02001661           JUNCTION        0.07          0.131        1.259
  YS02001748           JUNCTION        0.20          0.363        0.827
  YS02001751           JUNCTION        0.33          0.962        0.238
  YS02001754           JUNCTION        0.51          1.150        0.000
  YS02001757           JUNCTION        0.85          1.210        0.000
  YS02001759           JUNCTION        0.77          1.210        0.000
  YS02001762           JUNCTION        0.73          1.150        0.000
  YS02001765           JUNCTION        0.69          1.100        0.000
  YS02001767           JUNCTION        0.66          1.030        0.000
  YS02001770           JUNCTION        0.63          0.920        0.000
  YS02001774           JUNCTION        0.71          1.050        0.000
  YS02001779           JUNCTION        0.50          0.680        0.000
  YS02001783           JUNCTION        0.59          0.558        1.042
  YS02001784           JUNCTION        0.56          0.370        1.120
  YS02001786           JUNCTION        0.44          0.113        1.317
  YS02001882           JUNCTION        0.53          0.826        0.004
  YS02001884           JUNCTION        0.54          0.870        0.000
  YS02001887           JUNCTION        0.58          0.914        0.036
  YS02001890           JUNCTION        0.59          0.760        0.000
  YS02001895           JUNCTION        0.51          0.577        0.173
  YS02001898           JUNCTION        0.51          0.552        0.188
  YS02001901           JUNCTION        0.56          0.687        0.183
  YS02001904           JUNCTION        0.55          0.643        0.207
  YS02001907           JUNCTION        0.87          0.950        0.000
  YS02001910           JUNCTION        0.62          0.973        0.127
  YS02001915           JUNCTION        0.52          1.000        0.000
  YS02001918           JUNCTION        0.43          0.810        0.000
  YS02001920           JUNCTION        0.45          1.140        0.000
  YS02001923           JUNCTION        0.13          0.820        0.000
  YS02001926           JUNCTION        0.16          0.900        0.000
  YS02001929           JUNCTION        0.01          0.780        0.000
  YS02006553           JUNCTION        0.90          0.989        0.201
  YS02006556           JUNCTION        0.73          1.078        0.272
  YS02006558           JUNCTION        0.71          1.279        0.121
  YS02006561           JUNCTION        0.40          0.290        0.860
  YS02163301           JUNCTION        1.01          0.910        0.120
  YS02163601           JUNCTION        1.06          1.063        0.017
  YS02164001           JUNCTION        0.97          1.100        0.000
  
  
  *********************
  Node Flooding Summary
  *********************
  
  Flooding refers to all water that overflows a node, whether it ponds or not.
  --------------------------------------------------------------------------
                                                             Total   Maximum
                                 Maximum   Time of Max       Flood    Ponded
                        Hours       Rate    Occurrence      Volume     Depth
  Node                 Flooded       LPS   days hr:min    10^6 ltr    Meters
  --------------------------------------------------------------------------
  WS02006112              0.01   1547.89      0  00:00       0.047     0.000
  WS02006242              0.01      2.03      0  03:27       0.000     0.000
  WS02006248              0.01      5.40      0  02:37       0.000     0.000
  WS02006249              0.55     97.58      0  02:22       0.132     0.000
  WS02006252              0.01      0.91      0  04:05       0.000     0.000
  WS02006256              0.92    285.13      0  04:45       0.306     0.000
  YS02001580              0.01     69.75      0  02:09       0.000     0.000
  YS02001583              0.01     29.23      0  02:09       0.000     0.000
  YS02001586              0.53    557.73      0  02:26       0.456     0.000
  YS02001600              0.01      0.42      0  02:09       0.000     0.000
  YS02001601              0.74   1437.47      0  02:25       1.574     0.000
  YS02001602              0.59     61.93      0  02:25       0.122     0.000
  YS02001605              0.01      0.58      0  02:20       0.000     0.000
  YS02001610              0.53    875.87      0  02:26       0.813     0.000
  YS02001613              0.01      0.22      0  02:20       0.000     0.000
  YS02001616              0.01      0.74      0  02:23       0.000     0.000
  YS02001619              0.01      1.72      0  02:24       0.000     0.000
  YS02001625              0.50   1456.65      0  02:26       1.347     0.000
  YS02001629              0.17    116.52      0  02:25       0.027     0.000
  YS02001633              0.01      1.52      0  02:20       0.000     0.000
  YS02001644              0.23   1456.69      0  02:25       0.583     0.000
  YS02001754              0.01      2.78      0  02:20       0.000     0.000
  YS02001757              0.01      3.32      0  02:20       0.000     0.000
  YS02001759              0.01      2.00      0  02:20       0.000     0.000
  YS02001762              0.01      2.12      0  02:20       0.000     0.000
  YS02001765              0.01      1.68      0  02:20       0.000     0.000
  YS02001767              0.01      1.03      0  02:20       0.000     0.000
  YS02001770              0.01      7.66      0  02:20       0.000     0.000
  YS02001774              0.01      1.22      0  02:20       0.000     0.000
  YS02001779              0.20    776.05      0  02:25       0.274     0.000
  YS02001884              0.01      0.41      0  02:20       0.000     0.000
  YS02001890              0.19    423.98      0  02:25       0.131     0.000
  YS02001907              0.38   2268.48      0  02:25       1.513     0.000
  YS02001915              0.01      1.08      0  02:20       0.000     0.000
  YS02001918              0.01     81.67      0  02:16       0.000     0.000
  YS02001920              0.01     24.41      0  02:16       0.000     0.000
  YS02001923              0.01     80.23      0  02:16       0.000     0.000
  YS02001926              0.01     30.04      0  02:16       0.000     0.000
  YS02001929              0.01    114.03      0  02:16       0.000     0.000
  YS02164001              0.01      0.98      0  02:20       0.000     0.000
  
  
  **********************
  Storage Volume Summary
  **********************
  
  ------------------------------------------------------------------------------------------------
                         Average    Avg   Evap  Exfil     Maximum    Max    Time of Max    Maximum
                          Volume   Pcnt   Pcnt   Pcnt      Volume   Pcnt     Occurrence    Outflow
  Storage Unit           1000 m³   Full   Loss   Loss     1000 m³   Full    days hr:min        LPS
  ------------------------------------------------------------------------------------------------
  CC-storage               2.262   35.3    0.0    0.0       4.761   74.3       0  02:48    1766.00
  JK-storage               0.077   26.4    0.0    0.0       0.212   72.8       0  02:37    2300.00
  
  
  ***********************
  Outfall Loading Summary
  ***********************
  
  -----------------------------------------------------------
                         Flow       Avg       Max       Total
                         Freq      Flow      Flow      Volume
  Outfall Node           Pcnt       LPS       LPS    10^6 ltr
  -----------------------------------------------------------
  CC-1                  36.79    683.00    683.00       4.404
  CC-2                  46.20    683.00    683.00       4.810
  JK-1                   9.05   1000.00   1000.00       1.480
  JK-2                  12.99   1000.00   1000.00       2.077
  WSC                   99.99    225.25    554.36       4.546
  -----------------------------------------------------------
  System                41.00   3591.25   3849.91      17.317
  
  
  ********************
  Link Flow Summary
  ********************
  
  -----------------------------------------------------------------------------
                                 Maximum  Time of Max   Maximum    Max/    Max/
                                  |Flow|   Occurrence   |Veloc|    Full    Full
  Link                 Type          LPS  days hr:min     m/sec    Flow   Depth
  -----------------------------------------------------------------------------
  1                    CONDUIT    554.36     0  02:54      2.83    0.19    0.30
  WS02003060WS02003069 CONDUIT    552.32     0  02:53      1.64    0.22    0.34
  WS02003066WSF200     CONDUIT    535.77     0  02:52      2.85    0.09    0.22
  WS02003067WS02003066 CONDUIT    535.77     0  02:52      1.21    0.17    0.42
  WS02003069WS02003072 CONDUIT    552.60     0  02:53      1.37    0.27    0.39
  WS02003072WS02003073 CONDUIT    552.58     0  02:54      1.43    1.19    0.37
  WS02004401WS02004402 CONDUIT   1171.33     0  00:01      2.51    1.41    0.86
  WS02004402WS02004403 CONDUIT    884.75     0  00:01      2.16    1.27    0.88
  WS02004403WS02004404 CONDUIT    832.43     0  00:01      1.96    0.60    0.93
  WS02004404WS02004405 CONDUIT    776.45     0  00:01      2.26    7.61    0.96
  WS02004405WS02004406 CONDUIT    711.76     0  00:02      2.15    1.40    0.96
  WS02004406WS02004407 CONDUIT    536.13     0  02:48      1.04    0.24    0.63
  WS02004407WS02004409 CONDUIT    536.07     0  02:48      1.95    0.19    0.48
  WS02004409WS02004410 CONDUIT    535.93     0  02:50      1.31    0.69    0.67
  WS02004410WS02004411 CONDUIT    535.85     0  02:51      1.19    0.73    0.69
  WS02004411WS02004412 CONDUIT    535.81     0  02:51      1.09    0.76    0.69
  WS02004412WS02004413 CONDUIT    535.78     0  02:51      1.11    0.36    0.78
  WS02004413WS02003067 CONDUIT    535.75     0  02:52      1.11    0.23    0.59
  WS02006109WS02006110 CONDUIT   1306.78     0  00:00      3.14    2.51    1.00
  WS02006110WS02006113 CONDUIT    580.24     0  02:56      1.40    0.53    1.00
  WS02006111WS02006112 CONDUIT   2307.30     0  00:00      9.18    1.10    0.91
  WS02006112WS02006115 CONDUIT    899.27     0  00:00      1.16    0.53    1.00
  WS02006113WS02006111 CONDUIT   1176.04     0  00:00      2.47    1.41    1.00
  WS02006115WS02006116 CONDUIT   1098.16     0  00:01      1.72    1.41    1.00
  WS02006116WS02004401 CONDUIT   1677.78     0  00:00      2.92    2.31    0.84
  WS02006228WS02006109 CONDUIT    553.64     0  02:31      1.40    2.42    1.00
  WS02006229WS02006228 CONDUIT    553.40     0  02:55      1.24    1.83    1.00
  WS02006230WS02006229 CONDUIT    553.57     0  02:55      1.44   12.32    1.00
  WS02006231WS02006230 CONDUIT    575.46     0  02:37      1.56    8.73    1.00
  WS02006232WS02006231 CONDUIT    581.88     0  02:55      1.52    1.22    1.00
  WS02006234WS02006232 CONDUIT    580.67     0  02:55      1.51    1.17    1.00
  WS02006235WS02006234 CONDUIT    574.33     0  02:55      1.49    6.06    1.00
  WS02006238WS02006235 CONDUIT    438.50     0  03:27      1.52    0.98    1.00
  WS02006239WS02006238 CONDUIT    423.23     0  03:27      1.10    1.35    1.00
  WS02006240WS02006239 CONDUIT    422.69     0  03:27      1.15    1.33    1.00
  WS02006242WS02006240 CONDUIT    422.66     0  03:36      1.10    1.68    1.00
  WS02006243WS02006242 CONDUIT    423.42     0  03:36      1.22    0.90    1.00
  WS02006245WS02006243 CONDUIT    425.59     0  03:36      1.33    1.26    1.00
  WS02006247WS02006245 CONDUIT    426.39     0  03:36      1.36    3.38    1.00
  WS02006248WS02006247 CONDUIT    426.03     0  03:36      1.44    0.93    1.00
  WS02006249WS02006248 CONDUIT    425.56     0  03:36      1.40    2.33    1.00
  WS02006251WS02006249 CONDUIT    473.38     0  01:55      2.00    1.36    1.00
  WS02006252WS02006251 CONDUIT    406.46     0  02:22     21.78    1.49    1.00
  WS02006256WS02006235 CONDUIT    289.26     0  00:05      4.25    3.06    1.00
  WSF200WS02003060     CONDUIT    535.81     0  02:52      2.06    0.12    0.28
  YS02001580YS02001583 CONDUIT     79.74     0  02:09      0.49    0.31    1.00
  YS02001583YS02001586 CONDUIT    104.22     0  02:08      0.43    0.16    1.00
  YS02001586YS02001590 CONDUIT    320.18     0  02:20      1.24    0.56    1.00
  YS02001590YS02001593 CONDUIT    318.81     0  02:20      1.13    2.00    1.00
  YS02001593YS02001596 CONDUIT    318.13     0  02:45      1.75    0.50    1.00
  YS02001596YS02001600 CONDUIT    318.07     0  02:20      1.28    0.62    1.00
  YS02001600YS02001601 CONDUIT    318.46     0  02:20      1.13    0.55    1.00
  YS02001601YS02001602 CONDUIT    491.92     0  02:08      1.74    1.78    1.00
  YS02001602YS02001605 CONDUIT    492.27     0  02:08      1.74   10.42    1.00
  YS02001605YS02001607 CONDUIT    492.31     0  02:08      1.74    2.70    1.00
  YS02001607YS02001610 CONDUIT    490.68     0  02:08      0.62    0.47    1.00
  YS02001610YS02001613 CONDUIT    540.32     0  02:26      0.69    0.62    1.00
  YS02001613YS02001616 CONDUIT    540.18     0  02:26      0.69    0.46    1.00
  YS02001616YS02001619 CONDUIT    539.35     0  02:26      0.69    0.94    1.00
  YS02001619YS02001622 CONDUIT   1024.32     0  02:25      1.30    1.51    1.00
  YS02001622YS02001625 CONDUIT   1023.40     0  02:25      1.30    0.55    1.00
  YS02001625YS02001629 CONDUIT    928.12     0  02:14      1.18    0.44    1.00
  YS02001629YS02163301 CONDUIT    928.05     0  02:14      1.18    1.14    1.00
  YS02001633YS02163601 CONDUIT   1335.37     0  02:14      1.70    1.40    1.00
  YS02001641YS02001644 CONDUIT   1334.37     0  02:14      1.70    4.31    1.00
  YS02001644YS02001647 CONDUIT   1703.87     0  02:14      2.19    1.00    1.00
  YS02001647YS02001649 CONDUIT   1727.70     0  02:14      2.30    0.91    1.00
  YS02001649YS02001757 CONDUIT   1959.57     0  02:15      2.49    1.19    1.00
  YS02001652YS02001649 CONDUIT   1023.22     0  02:25      1.30    0.51    1.00
  YS02001655YS02001652 CONDUIT   1022.93     0  02:25      1.30    0.50    1.00
  YS02001658YS02001655 CONDUIT   1022.98     0  02:25      1.81    0.43    1.00
  YS02001661YS02001658 CONDUIT   1022.64     0  02:25      2.22    0.40    1.00
  YS02001664YS02001661 CONDUIT   1024.25     0  02:25      2.20    0.32    0.83
  YS02001745YS02001748 CONDUIT    638.57     0  02:25      2.07    0.25    0.94
  YS02001748YS02001751 CONDUIT    638.31     0  02:25      1.60    0.32    1.00
  YS02001751YS02001754 CONDUIT    639.05     0  02:25      1.36    0.31    1.00
  YS02001754YS02001757 CONDUIT    638.79     0  02:25      0.81    0.26    1.00
  YS02001757CaochengTiaoxuchi CONDUIT   3231.33     0  02:20      4.11    1.40    1.00
  YS02001759YS02001757 CONDUIT   1349.21     0  02:25      1.72    0.96    1.00
  YS02001762YS02001759 CONDUIT    730.79     0  02:20      0.93    0.84    1.00
  YS02001765YS02001762 CONDUIT    726.14     0  02:20      0.92    0.68    1.00
  YS02001767YS02001765 CONDUIT    725.34     0  02:20      0.92    0.91    1.00
  YS02001770YS02001767 CONDUIT    727.46     0  02:20      0.93    2.88    1.00
  YS02001774YS02001770 CONDUIT    774.83     0  02:25      0.99    0.49    1.00
  YS02001779YS02001774 CONDUIT    776.08     0  02:25      0.99    0.39    1.00
  YS02001783YS02001784 CONDUIT   1166.65     0  02:23      2.32    1.61    1.00
  YS02001784YS02001785 CONDUIT   1167.47     0  02:24      2.32    2.72    1.00
  YS02001786YS02001788 CONDUIT   1168.32     0  02:23      2.48    2.25    0.89
  YS02001788YS02001790 CONDUIT   1181.24     0  02:23      2.72    0.87    0.84
  YS02001790YS02001791 CONDUIT   1292.05     0  02:24      3.41    1.41    0.71
  YS02001791YS02001793 CONDUIT   1250.51     0  02:25      6.79    0.54    0.43
  YS02001793JiankangQianchi CONDUIT   1248.62     0  02:25      2.51    0.10    0.64
  YS02001882YS02001884 CONDUIT     40.34     0  02:12      0.14    0.05    1.00
  YS02001884YS02001887 CONDUIT     38.83     0  02:10      0.10    0.05    1.00
  YS02001887YS02001890 CONDUIT    939.87     0  02:25      1.20    1.61    1.00
  YS02001890YS02001895 CONDUIT    517.48     0  02:27      0.66    0.24    1.00
  YS02001895YS02001898 CONDUIT    517.63     0  02:27      0.66    0.90    1.00
  YS02001898YS02001901 CONDUIT    517.06     0  02:27      0.66    0.33    1.00
  YS02001901YS02001904 CONDUIT    517.04     0  02:27      0.66    0.80    1.00
  YS02001904YS02001907 CONDUIT    517.30     0  02:27      0.66    0.18    1.00
  YS02001907YS02006553 CONDUIT    802.62     0  02:39      0.89    0.94    1.00
  YS02001910YS02001907 CONDUIT   1645.30     0  02:25      2.09    0.93    1.00
  YS02001915YS02001910 CONDUIT   1645.30     0  02:25      2.09    0.82    1.00
  YS02001918YS02001915 CONDUIT    549.21     0  02:25      0.70    0.30    1.00
  YS02001920YS02001918 CONDUIT    548.58     0  02:25      0.70    0.53    1.00
  YS02001923YS02001920 CONDUIT    546.17     0  02:25      0.70    0.25    1.00
  YS02001926YS02001923 CONDUIT    545.25     0  02:25      0.94    0.78    1.00
  YS02001929YS02001926 CONDUIT    544.96     0  02:25      1.07    0.26    1.00
  YS02006553YS02006556 CONDUIT    802.66     0  02:39      1.02    0.69    1.00
  YS02006556YS02006558 CONDUIT    805.55     0  02:39      1.03    0.64    1.00
  YS02006558YS02006561 CONDUIT   1166.73     0  02:24      4.13    2.58    1.00
  YS02006561YS02001783 CONDUIT   1166.57     0  02:24      2.32    0.60    1.00
  YS02163301YS02001633 CONDUIT    927.84     0  02:14      1.18    0.87    1.00
  YS02163601YS02164001 CONDUIT   1334.64     0  02:14      1.70    1.18    1.00
  YS02164001YS02001641 CONDUIT   1334.14     0  02:14      1.70    1.82    1.00
  CC-R1                PUMP       683.00     0  00:10              1.00
  CC-R2                PUMP       683.00     0  00:05              1.00
  CC-S1                PUMP       200.00     0  01:20              1.00
  CC-S2                PUMP       200.00     0  00:05              1.00
  JK-R1                PUMP      1000.00     0  01:35              1.00
  JK-R2                PUMP      1000.00     0  00:05              1.00
  JK-S                 PUMP       300.00     0  00:05              1.00
  
  
  ***************************
  Flow Classification Summary
  ***************************
  
  -------------------------------------------------------------------------------------
                      Adjusted    ---------- Fraction of Time in Flow Class ---------- 
                       /Actual         Up    Down  Sub   Sup   Up    Down  Norm  Inlet 
  Conduit               Length    Dry  Dry   Dry   Crit  Crit  Crit  Crit  Ltd   Ctrl  
  -------------------------------------------------------------------------------------
  1                       1.00   0.00  0.00  0.00  0.00  1.00  0.00  0.00  0.32  0.00
  WS02003060WS02003069    1.00   0.00  0.00  0.00  0.98  0.02  0.00  0.00  0.73  0.00
  WS02003066WSF200        1.00   0.03  0.00  0.00  0.00  0.97  0.00  0.00  0.90  0.00
  WS02003067WS02003066    1.00   0.02  0.01  0.00  0.97  0.00  0.00  0.00  0.00  0.00
  WS02003069WS02003072    1.00   0.00  0.00  0.00  0.99  0.01  0.00  0.00  0.80  0.00
  WS02003072WS02003073    1.00   0.00  0.00  0.00  0.00  0.00  0.00  1.00  0.00  0.00
  WS02004401WS02004402    1.00   0.00  0.00  0.00  1.00  0.00  0.00  0.00  0.00  0.00
  WS02004402WS02004403    1.00   0.00  0.00  0.00  1.00  0.00  0.00  0.00  0.00  0.00
  WS02004403WS02004404    1.00   0.00  0.00  0.00  1.00  0.00  0.00  0.00  0.00  0.00
  WS02004404WS02004405    1.00   0.00  0.00  0.00  1.00  0.00  0.00  0.00  0.01  0.00
  WS02004405WS02004406    1.00   0.00  0.00  0.00  1.00  0.00  0.00  0.00  0.00  0.00
  WS02004406WS02004407    1.00   0.00  0.00  0.00  1.00  0.00  0.00  0.00  0.00  0.00
  WS02004407WS02004409    1.00   0.00  0.00  0.00  0.99  0.00  0.00  0.00  0.99  0.00
  WS02004409WS02004410    1.00   0.00  0.00  0.00  0.99  0.00  0.00  0.00  0.00  0.00
  WS02004410WS02004411    1.00   0.01  0.00  0.00  0.99  0.00  0.00  0.00  0.00  0.00
  WS02004411WS02004412    1.00   0.01  0.00  0.00  0.99  0.00  0.00  0.00  0.00  0.00
  WS02004412WS02004413    1.00   0.01  0.00  0.00  0.99  0.00  0.00  0.00  0.00  0.00
  WS02004413WS02003067    1.00   0.01  0.01  0.00  0.00  0.00  0.98  0.00  0.00  0.00
  WS02006109WS02006110    1.00   0.00  0.00  0.00  1.00  0.00  0.00  0.00  0.00  0.00
  WS02006110WS02006113    1.00   0.00  0.00  0.00  1.00  0.00  0.00  0.00  0.00  0.00
  WS02006111WS02006112    1.00   0.00  0.00  0.00  1.00  0.00  0.00  0.00  1.00  0.00
  WS02006112WS02006115    1.00   0.00  0.00  0.00  1.00  0.00  0.00  0.00  0.00  0.00
  WS02006113WS02006111    1.00   0.00  0.00  0.00  0.01  0.99  0.00  0.00  0.12  0.00
  WS02006115WS02006116    1.00   0.00  0.00  0.00  1.00  0.00  0.00  0.00  0.00  0.00
  WS02006116WS02004401    1.00   0.00  0.00  0.00  1.00  0.00  0.00  0.00  0.00  0.00
  WS02006228WS02006109    1.00   0.00  0.00  0.00  1.00  0.00  0.00  0.00  0.00  0.00
  WS02006229WS02006228    1.00   0.00  0.00  0.00  1.00  0.00  0.00  0.00  0.00  0.00
  WS02006230WS02006229    1.00   0.00  0.00  0.00  1.00  0.00  0.00  0.00  0.04  0.00
  WS02006231WS02006230    1.00   0.00  0.00  0.00  0.20  0.00  0.79  0.00  0.00  0.00
  WS02006232WS02006231    1.00   0.00  0.00  0.00  0.99  0.00  0.01  0.00  0.00  0.00
  WS02006234WS02006232    1.00   0.00  0.00  0.00  0.99  0.00  0.00  0.00  0.04  0.00
  WS02006235WS02006234    1.00   0.01  0.00  0.00  0.90  0.00  0.09  0.00  0.00  0.00
  WS02006238WS02006235    1.00   0.01  0.00  0.00  0.99  0.00  0.00  0.00  0.01  0.00
  WS02006239WS02006238    1.00   0.01  0.00  0.00  0.99  0.00  0.00  0.00  0.10  0.00
  WS02006240WS02006239    1.00   0.01  0.00  0.00  0.73  0.00  0.00  0.26  0.06  0.00
  WS02006242WS02006240    1.00   0.01  0.00  0.00  0.97  0.00  0.01  0.00  0.00  0.00
  WS02006243WS02006242    1.00   0.01  0.00  0.00  0.98  0.00  0.00  0.01  0.60  0.00
  WS02006245WS02006243    1.00   0.01  0.00  0.00  0.77  0.00  0.00  0.21  0.01  0.00
  WS02006247WS02006245    1.00   0.01  0.00  0.00  0.94  0.00  0.00  0.05  0.00  0.00
  WS02006248WS02006247    1.00   0.01  0.00  0.00  0.97  0.00  0.00  0.02  0.49  0.00
  WS02006249WS02006248    1.00   0.00  0.01  0.00  0.43  0.00  0.56  0.00  0.00  0.00
  WS02006251WS02006249    1.00   0.00  0.00  0.00  0.99  0.01  0.00  0.00  0.59  0.00
  WS02006252WS02006251    1.00   0.02  0.54  0.00  0.07  0.00  0.37  0.00  0.00  0.00
  WS02006256WS02006235    1.00   0.01  0.00  0.00  0.97  0.02  0.00  0.00  0.01  0.00
  WSF200WS02003060        1.00   0.00  0.03  0.00  0.44  0.53  0.00  0.00  0.69  0.00
  YS02001580YS02001583    1.00   0.26  0.53  0.00  0.20  0.00  0.00  0.00  0.63  0.00
  YS02001583YS02001586    1.00   0.40  0.34  0.00  0.26  0.00  0.00  0.00  0.63  0.00
  YS02001586YS02001590    1.00   0.13  0.00  0.00  0.46  0.04  0.00  0.37  0.38  0.00
  YS02001590YS02001593    1.00   0.13  0.01  0.00  0.13  0.00  0.74  0.00  0.00  0.00
  YS02001593YS02001596    1.00   0.13  0.00  0.00  0.15  0.01  0.00  0.71  0.02  0.00
  YS02001596YS02001600    1.00   0.13  0.00  0.00  0.22  0.01  0.00  0.63  0.05  0.00
  YS02001600YS02001601    1.00   0.13  0.01  0.00  0.86  0.00  0.00  0.00  0.58  0.00
  YS02001601YS02001602    1.00   0.13  0.01  0.00  0.87  0.00  0.00  0.00  0.00  0.00
  YS02001602YS02001605    1.00   0.13  0.00  0.00  0.87  0.00  0.00  0.00  0.00  0.00
  YS02001605YS02001607    1.00   0.14  0.00  0.00  0.86  0.00  0.00  0.00  0.00  0.00
  YS02001607YS02001610    1.00   0.13  0.01  0.00  0.86  0.00  0.00  0.00  0.01  0.00
  YS02001610YS02001613    1.00   0.13  0.00  0.00  0.87  0.00  0.00  0.00  0.00  0.00
  YS02001613YS02001616    1.00   0.13  0.00  0.00  0.87  0.00  0.00  0.00  0.00  0.00
  YS02001616YS02001619    1.00   0.13  0.00  0.00  0.87  0.00  0.00  0.00  0.00  0.00
  YS02001619YS02001622    1.00   0.13  0.00  0.00  0.87  0.00  0.00  0.00  0.27  0.00
  YS02001622YS02001625    1.00   0.13  0.00  0.00  0.87  0.00  0.00  0.00  0.04  0.00
  YS02001625YS02001629    1.00   0.13  0.04  0.00  0.18  0.00  0.65  0.00  0.00  0.00
  YS02001629YS02163301    1.00   0.15  0.01  0.00  0.84  0.00  0.00  0.00  0.00  0.00
  YS02001633YS02163601    1.00   0.00  0.01  0.00  0.99  0.00  0.00  0.00  0.14  0.00
  YS02001641YS02001644    1.00   0.00  0.01  0.00  0.99  0.00  0.00  0.00  0.00  0.00
  YS02001644YS02001647    1.00   0.00  0.17  0.00  0.83  0.00  0.00  0.00  0.00  0.00
  YS02001647YS02001649    1.00   0.00  0.17  0.00  0.53  0.31  0.00  0.00  0.54  0.00
  YS02001649YS02001757    1.00   0.00  0.00  0.00  0.69  0.31  0.00  0.00  0.41  0.00
  YS02001652YS02001649    1.00   0.00  0.00  0.00  0.97  0.03  0.00  0.00  0.71  0.00
  YS02001655YS02001652    1.00   0.00  0.00  0.00  0.20  0.02  0.00  0.78  0.06  0.00
  YS02001658YS02001655    1.00   0.00  0.14  0.00  0.66  0.20  0.00  0.00  0.68  0.00
  YS02001661YS02001658    1.00   0.14  0.00  0.00  0.50  0.36  0.00  0.00  0.69  0.00
  YS02001664YS02001661    1.00   0.13  0.00  0.00  0.76  0.11  0.00  0.00  0.85  0.00
  YS02001745YS02001748    1.00   0.00  0.00  0.00  0.10  0.01  0.00  0.89  0.04  0.00
  YS02001748YS02001751    1.00   0.00  0.00  0.00  0.82  0.18  0.00  0.00  0.73  0.00
  YS02001751YS02001754    1.00   0.00  0.00  0.00  0.17  0.01  0.00  0.83  0.03  0.00
  YS02001754YS02001757    1.00   0.00  0.00  0.00  1.00  0.00  0.00  0.00  0.80  0.00
  YS02001757CaochengTiaoxuchi    1.00   0.00  0.00  0.00  0.94  0.06  0.00  0.00  0.74  0.00
  YS02001759YS02001757    1.00   0.00  0.00  0.00  0.99  0.01  0.00  0.00  0.64  0.00
  YS02001762YS02001759    1.00   0.00  0.00  0.00  1.00  0.00  0.00  0.00  0.03  0.00
  YS02001765YS02001762    1.00   0.00  0.00  0.00  1.00  0.00  0.00  0.00  0.68  0.00
  YS02001767YS02001765    1.00   0.00  0.00  0.00  1.00  0.00  0.00  0.00  0.00  0.00
  YS02001770YS02001767    1.00   0.00  0.00  0.00  1.00  0.00  0.00  0.00  0.00  0.00
  YS02001774YS02001770    1.00   0.00  0.13  0.00  0.71  0.00  0.16  0.00  0.03  0.00
  YS02001779YS02001774    1.00   0.00  0.00  0.00  1.00  0.00  0.00  0.00  0.74  0.00
  YS02001783YS02001784    1.00   0.00  0.17  0.00  0.83  0.00  0.00  0.00  0.54  0.00
  YS02001784YS02001785    1.00   0.00  0.00  0.00  1.00  0.00  0.00  0.00  0.16  0.00
  YS02001786YS02001788    1.00   0.00  0.00  0.00  0.78  0.22  0.00  0.00  0.00  0.00
  YS02001788YS02001790    1.00   0.00  0.00  0.00  0.21  0.79  0.00  0.00  0.79  0.00
  YS02001790YS02001791    1.00   0.00  0.00  0.00  0.01  0.99  0.00  0.00  0.16  0.00
  YS02001791YS02001793    1.00   0.00  0.00  0.00  0.00  1.00  0.00  0.00  0.01  0.00
  YS02001793JiankangQianchi    1.00   0.00  0.00  0.00  0.96  0.04  0.00  0.00  0.99  0.00
  YS02001882YS02001884    1.00   0.15  0.01  0.00  0.84  0.00  0.00  0.00  0.00  0.00
  YS02001884YS02001887    1.00   0.06  0.05  0.00  0.89  0.00  0.00  0.00  0.00  0.00
  YS02001887YS02001890    1.00   0.00  0.00  0.00  0.97  0.00  0.03  0.00  0.00  0.00
  YS02001890YS02001895    1.00   0.00  0.16  0.00  0.84  0.00  0.00  0.00  0.00  0.00
  YS02001895YS02001898    1.00   0.16  0.00  0.00  0.82  0.00  0.02  0.00  0.00  0.00
  YS02001898YS02001901    1.00   0.16  0.00  0.00  0.84  0.00  0.00  0.00  0.01  0.00
  YS02001901YS02001904    1.00   0.16  0.00  0.00  0.84  0.00  0.00  0.00  0.00  0.00
  YS02001904YS02001907    1.00   0.00  0.16  0.00  0.84  0.00  0.00  0.00  0.00  0.00
  YS02001907YS02006553    1.00   0.00  0.02  0.00  0.98  0.00  0.00  0.00  0.00  0.00
  YS02001910YS02001907    1.00   0.00  0.00  0.00  0.97  0.00  0.00  0.03  0.12  0.00
  YS02001915YS02001910    1.00   0.00  0.00  0.00  0.97  0.03  0.00  0.00  0.15  0.00
  YS02001918YS02001915    1.00   0.00  0.00  0.00  0.98  0.02  0.00  0.00  0.74  0.00
  YS02001920YS02001918    1.00   0.00  0.00  0.00  1.00  0.00  0.00  0.00  0.01  0.00
  YS02001923YS02001920    1.00   0.00  0.00  0.00  1.00  0.00  0.00  0.00  0.92  0.00
  YS02001926YS02001923    1.00   0.00  0.07  0.00  0.07  0.00  0.86  0.00  0.00  0.00
  YS02001929YS02001926    1.00   0.00  0.13  0.00  0.87  0.00  0.00  0.00  0.82  0.00
  YS02006553YS02006556    1.00   0.01  0.00  0.00  0.99  0.00  0.00  0.00  0.03  0.00
  YS02006556YS02006558    1.00   0.00  0.00  0.00  1.00  0.00  0.00  0.00  0.00  0.00
  YS02006558YS02006561    1.00   0.17  0.00  0.00  0.06  0.77  0.00  0.00  0.18  0.00
  YS02006561YS02001783    1.00   0.17  0.00  0.00  0.10  0.73  0.00  0.00  0.67  0.00
  YS02163301YS02001633    1.00   0.00  0.15  0.00  0.85  0.00  0.00  0.00  0.00  0.00
  YS02163601YS02164001    1.00   0.00  0.08  0.00  0.92  0.00  0.00  0.00  0.00  0.00
  YS02164001YS02001641    1.00   0.01  0.07  0.00  0.92  0.00  0.00  0.00  0.05  0.00
  
  
  *************************
  Conduit Surcharge Summary
  *************************
  
  ----------------------------------------------------------------------------
                                                           Hours        Hours 
                         --------- Hours Full --------   Above Full   Capacity
  Conduit                Both Ends  Upstream  Dnstream   Normal Flow   Limited
  ----------------------------------------------------------------------------
  WS02003072WS02003073        0.01      0.01      0.01      0.67         0.01
  WS02004401WS02004402        0.01      0.01      0.01      0.01         0.01
  WS02004402WS02004403        0.01      0.01      0.01      0.01         0.01
  WS02004404WS02004405        0.01      0.01      0.01      2.71         0.01
  WS02004405WS02004406        0.01      0.01      0.01      0.40         0.01
  WS02006109WS02006110        0.44      0.45      1.44      0.52         0.01
  WS02006110WS02006113        0.01      0.01      1.44      0.01         0.01
  WS02006111WS02006112        0.01      0.01      1.72      0.01         0.01
  WS02006112WS02006115        0.01      0.01      0.44      0.01         0.01
  WS02006113WS02006111        0.01      0.01      0.01      0.01         0.01
  WS02006115WS02006116        0.01      0.01      0.01      0.01         0.01
  WS02006116WS02004401        0.01      0.01      0.01      0.01         0.01
  WS02006228WS02006109        1.42      1.44      1.42      2.15         1.41
  WS02006229WS02006228        1.41      1.42      1.41      1.74         1.41
  WS02006230WS02006229        1.50      1.66      1.50      3.34         1.50
  WS02006231WS02006230        0.46      0.46      0.56      2.90         0.01
  WS02006232WS02006231        0.52      0.52      1.44      0.59         0.01
  WS02006234WS02006232        1.38      1.38      1.44      0.57         0.57
  WS02006235WS02006234        0.81      0.81      1.39      2.69         0.01
  WS02006238WS02006235        1.41      1.41      1.45      0.01         0.01
  WS02006239WS02006238        1.42      1.43      1.43      1.54         1.30
  WS02006240WS02006239        1.40      1.42      1.40      1.53         1.23
  WS02006242WS02006240        1.41      1.41      1.45      1.71         0.01
  WS02006243WS02006242        1.41      1.41      1.42      0.01         0.03
  WS02006245WS02006243        1.40      1.40      1.41      1.10         0.98
  WS02006247WS02006245        1.40      1.40      1.40      2.46         1.39
  WS02006248WS02006247        1.40      1.40      1.40      0.01         0.04
  WS02006249WS02006248        1.39      1.39      1.39      2.42         0.01
  WS02006251WS02006249        1.39      1.39      1.39      1.62         1.34
  WS02006252WS02006251        1.70      1.70      1.71      1.70         0.01
  WS02006256WS02006235        2.73      2.78      6.76      0.99         0.01
  YS02001580YS02001583        0.68      0.68      0.74      0.01         0.01
  YS02001583YS02001586        0.69      0.69      0.81      0.01         0.01
  YS02001586YS02001590        0.82      0.82      0.90      0.01         0.01
  YS02001590YS02001593        0.90      0.90      0.93      0.91         0.01
  YS02001593YS02001596        0.92      0.92      1.03      0.01         0.01
  YS02001596YS02001600        1.09      1.09      1.19      0.01         0.01
  YS02001600YS02001601        1.25      1.25      1.56      0.01         0.01
  YS02001601YS02001602        1.43      1.43      1.60      1.20         0.01
  YS02001602YS02001605        1.38      1.38      1.43      2.46         0.01
  YS02001605YS02001607        1.33      1.38      1.33      1.51         1.33
  YS02001607YS02001610        0.88      0.88      0.91      0.01         0.01
  YS02001610YS02001613        0.88      0.88      0.91      0.01         0.01
  YS02001613YS02001616        0.83      0.83      0.88      0.01         0.01
  YS02001616YS02001619        0.81      0.81      0.83      0.01         0.04
  YS02001619YS02001622        0.81      0.81      0.81      0.91         0.78
  YS02001622YS02001625        0.81      0.81      1.00      0.01         0.01
  YS02001625YS02001629        0.74      0.74      1.00      0.01         0.01
  YS02001629YS02163301        1.00      1.00      1.01      0.21         0.22
  YS02001633YS02163601        1.03      1.03      1.06      0.40         0.39
  YS02001641YS02001644        0.93      0.96      0.93      1.64         0.91
  YS02001644YS02001647        0.68      0.68      0.93      0.01         0.01
  YS02001647YS02001649        0.68      0.68      0.80      0.01         0.01
  YS02001649YS02001757        0.79      0.80      0.85      0.16         0.09
  YS02001652YS02001649        0.62      0.62      0.80      0.01         0.01
  YS02001655YS02001652        0.44      0.44      0.60      0.01         0.01
  YS02001658YS02001655        0.26      0.26      0.44      0.01         0.01
  YS02001661YS02001658        0.07      0.07      0.26      0.01         0.01
  YS02001664YS02001661        0.01      0.01      0.11      0.01         0.01
  YS02001745YS02001748        0.01      0.01      0.20      0.01         0.01
  YS02001748YS02001751        0.23      0.23      0.33      0.01         0.01
  YS02001751YS02001754        0.33      0.33      0.51      0.01         0.01
  YS02001754YS02001757        0.55      0.55      0.85      0.01         0.01
  YS02001757CaochengTiaoxuchi        0.81      0.85      1.39      0.43         0.34
  YS02001759YS02001757        0.77      0.77      0.85      0.01         0.01
  YS02001762YS02001759        0.73      0.73      0.77      0.01         0.01
  YS02001765YS02001762        0.69      0.69      0.73      0.01         0.01
  YS02001767YS02001765        0.65      0.66      0.69      0.01         0.02
  YS02001770YS02001767        0.65      0.65      0.66      0.60         0.46
  YS02001774YS02001770        0.63      0.63      0.71      0.01         0.01
  YS02001779YS02001774        0.50      0.50      0.71      0.01         0.01
  YS02001783YS02001784        0.56      0.59      0.56      0.78         0.56
  YS02001784YS02001785        0.44      0.56      0.44      1.06         0.44
  YS02001786YS02001788        0.01      0.44      0.01      0.91         0.01
  YS02001790YS02001791        0.01      0.01      0.01      0.55         0.01
  YS02001793JiankangQianchi        0.01      0.01      6.23      0.01         0.01
  YS02001882YS02001884        0.53      0.53      0.54      0.01         0.01
  YS02001884YS02001887        0.56      0.56      0.58      0.01         0.01
  YS02001887YS02001890        0.59      0.59      0.60      0.14         0.01
  YS02001890YS02001895        0.51      0.51      0.63      0.01         0.01
  YS02001895YS02001898        0.51      0.51      0.51      0.01         0.01
  YS02001898YS02001901        0.52      0.52      0.56      0.01         0.01
  YS02001901YS02001904        0.55      0.55      0.56      0.01         0.01
  YS02001904YS02001907        0.55      0.55      0.90      0.01         0.01
  YS02001907YS02006553        1.08      1.08      1.16      0.01         0.01
  YS02001910YS02001907        0.62      0.62      0.87      0.01         0.01
  YS02001915YS02001910        0.52      0.52      0.62      0.01         0.01
  YS02001918YS02001915        0.43      0.43      0.52      0.01         0.01
  YS02001920YS02001918        0.43      0.43      0.45      0.01         0.01
  YS02001923YS02001920        0.39      0.39      0.45      0.01         0.01
  YS02001926YS02001923        0.13      0.13      0.16      0.01         0.01
  YS02001929YS02001926        0.01      0.01      0.16      0.01         0.01
  YS02006553YS02006556        0.73      0.73      0.90      0.01         0.01
  YS02006556YS02006558        0.81      0.81      0.92      0.01         0.01
  YS02006558YS02006561        0.47      0.71      0.47      1.00         0.47
  YS02006561YS02001783        0.40      0.40      0.59      0.01         0.01
  YS02163301YS02001633        1.01      1.01      1.05      0.01         0.01
  YS02163601YS02164001        0.97      0.97      1.06      0.13         0.01
  YS02164001YS02001641        0.96      0.97      0.96      0.77         0.68
  
  
  ***************
  Pumping Summary
  ***************
  
  ---------------------------------------------------------------------------------------------------------
                                                  Min       Avg       Max     Total     Power    % Time Off
                        Percent   Number of      Flow      Flow      Flow    Volume     Usage    Pump Curve
  Pump                 Utilized   Start-Ups       LPS       LPS       LPS  10^6 ltr     Kw-hr    Low   High
  ---------------------------------------------------------------------------------------------------------
  CC-R1                   22.44          25      0.00    683.00    683.00     4.414     80.84    0.0   36.1
  CC-R2                   24.54          27      0.00    683.00    683.00     4.827     87.25    0.0   42.0
  CC-S1                   30.99          21      0.00    200.00    200.00     1.785     10.43    0.0    0.0
  CC-S2                   22.86          23      0.00    200.00    200.00     1.317      7.45    0.0    0.0
  JK-R1                    5.15          13      0.00   1000.00   1000.00     1.482     13.36    0.0    0.0
  JK-R2                    7.25          20      0.00   1000.00   1000.00     2.088     17.10    0.0    0.0
  JK-S                    11.48          46      0.00    300.00    300.00     0.992     17.47    0.0    0.0
  

  Analysis begun on:  Fri Aug  4 09:50:58 2023
  Analysis ended on:  Fri Aug  4 09:51:03 2023
  Total elapsed time: 00:00:05