
  OWA STORM WATER MANAGEMENT MODEL - VERSION v5.1.14 (OWA 2022-07-31)
  --------------------------------------------------------------

  WARNING 04: minimum elevation drop used for Conduit WS02004404WS02004405
  WARNING 03: negative offset ignored for Link YS02001904YS02001907
  
  *********************************************************
  NOTE: The summary statistics displayed in this report are
  based on results found at every computational time step,  
  not just on results from each reporting time step.
  *********************************************************
  
  ****************
  Analysis Options
  ****************
  Flow Units ............... LPS
  Process Models:
    Rainfall/Runoff ........ YES
    RDII ................... NO
    Snowmelt ............... NO
    Groundwater ............ NO
    Flow Routing ........... YES
    Ponding Allowed ........ NO
    Water Quality .......... NO
  Infiltration Method ...... HORTON
  Flow Routing Method ...... DYNWAVE
  Surcharge Method ......... EXTRAN
  Starting Date ............ 08/28/2015 08:00:00
  Ending Date .............. 08/28/2015 16:00:00
  Antecedent Dry Days ...... 8.0
  Report Time Step ......... 00:01:00
  Wet Time Step ............ 00:01:00
  Dry Time Step ............ 00:01:00
  Routing Time Step ........ 30.00 sec
  Variable Time Step ....... YES
  Maximum Trials ........... 8
  Number of Threads ........ 1
  Head Tolerance ........... 0.001500 m
  
  
  **************************        Volume         Depth
  Runoff Quantity Continuity     hectare-m            mm
  **************************     ---------       -------
  Total Precipitation ......         2.644        79.703
  Evaporation Loss .........         0.000         0.000
  Infiltration Loss ........         0.107         3.211
  Surface Runoff ...........         2.504        75.504
  Final Storage ............         0.033         0.998
  Continuity Error (%) .....        -0.013
  
  
  **************************        Volume        Volume
  Flow Routing Continuity        hectare-m      10^6 ltr
  **************************     ---------     ---------
  Dry Weather Inflow .......         0.000         0.000
  Wet Weather Inflow .......         2.505        25.050
  Groundwater Inflow .......         0.000         0.000
  RDII Inflow ..............         0.000         0.000
  External Inflow ..........         0.083         0.834
  External Outflow .........         2.385        23.852
  Flooding Loss ............         0.301         3.007
  Evaporation Loss .........         0.000         0.000
  Exfiltration Loss ........         0.000         0.000
  Initial Stored Volume ....         0.243         2.431
  Final Stored Volume ......         0.181         1.808
  Continuity Error (%) .....        -1.244
  
  
  *************************
  Highest Continuity Errors
  *************************
  Node YS02001884 (3.77%)
  Node YS02001583 (-3.75%)
  Node YS02001774 (1.43%)
  Node YS02001658 (-1.20%)
  Node YS02001655 (-1.05%)
  
  
  ***************************
  Time-Step Critical Elements
  ***************************
  Link WS02006252WS02006251 (72.65%)
  Link YS02001791YS02001793 (6.83%)
  Link WS02006235WS02006234 (5.87%)
  Link YS02006556YS02006558 (3.54%)
  Link WS02004404WS02004405 (2.44%)
  
  
  ********************************
  Highest Flow Instability Indexes
  ********************************
  Link WS02006113WS02006111 (57)
  Link WS02006111WS02006112 (33)
  Link WS02006252WS02006251 (17)
  Link WS02006238WS02006235 (14)
  Link WS02006256WS02006235 (14)
  
  
  *************************
  Routing Time Step Summary
  *************************
  Minimum Time Step           :     0.00 sec
  Average Time Step           :     1.12 sec
  Maximum Time Step           :    30.00 sec
  Percent in Steady State     :    -0.00
  Average Iterations per Step :     3.11
  Percent Not Converging      :    15.44
  
  
  ***************************
  Subcatchment Runoff Summary
  ***************************
  
  ------------------------------------------------------------------------------------------------------------------------------
                            Total      Total      Total      Total     Imperv       Perv      Total       Total     Peak  Runoff
                           Precip      Runon       Evap      Infil     Runoff     Runoff     Runoff      Runoff   Runoff   Coeff
  Subcatchment                 mm         mm         mm         mm         mm         mm         mm    10^6 ltr      LPS
  ------------------------------------------------------------------------------------------------------------------------------
  sub60                     79.70       0.00       0.00       1.94      68.93       7.63      76.56        1.01   202.22   0.961
  sub61                     79.70       0.00       0.00       2.81      65.02      10.74      75.76        1.39   278.61   0.951
  sub62                     79.70       0.00       0.00       1.29      72.04       5.09      77.12        2.11   417.19   0.968
  sub63                     79.70       0.00       0.00       5.19      55.62      17.92      73.54        1.67   319.09   0.923
  sub64                     79.70       0.00       0.00       2.63      66.54       9.33      75.86        1.82   349.54   0.952
  sub65                     79.70       0.00       0.00       2.27      68.08       8.09      76.17        2.10   398.13   0.956
  sub66                     79.70       0.00       0.00       6.33      55.50      16.79      72.29        3.37   554.56   0.907
  sub67                     79.70       0.00       0.00       1.23      72.08       5.15      77.23        1.44   290.77   0.969
  sub68                     79.70       0.00       0.00       2.33      67.35       8.83      76.18        2.10   416.54   0.956
  sub69                     79.70       0.00       0.00       2.12      67.63       9.84      77.47        2.87   538.35   0.972
  sub70                     79.70       0.00       0.00       6.84      52.43      20.26      72.69        2.10   329.08   0.912
  sub71                     79.70       0.00       0.00       1.33      71.99       5.05      77.04        2.01   385.56   0.967
  sub72                     79.70       0.00       0.00       1.18      72.71       4.40      77.11        1.06   194.25   0.967
  
  
  ******************
  Node Depth Summary
  ******************
  
  ---------------------------------------------------------------------------------
                                 Average  Maximum  Maximum  Time of Max    Reported
                                   Depth    Depth      HGL   Occurrence   Max Depth
  Node                 Type       Meters   Meters   Meters  days hr:min      Meters
  ---------------------------------------------------------------------------------
  WS02003060           JUNCTION     0.25     0.38     5.31     0  02:01        0.38
  WS02003066           JUNCTION     0.21     0.29     5.85     0  02:03        0.29
  WS02003067           JUNCTION     0.54     0.70     6.02     0  02:03        0.70
  WS02003069           JUNCTION     0.28     0.42     5.01     0  02:04        0.42
  WS02003072           JUNCTION     0.35     0.49     4.87     0  02:04        0.49
  WS02003073           JUNCTION     0.20     0.29     4.36     0  02:05        0.29
  WS02004401           JUNCTION     0.62     0.85     6.85     0  02:00        0.84
  WS02004402           JUNCTION     0.65     0.87     6.83     0  02:01        0.87
  WS02004403           JUNCTION     0.68     0.89     6.82     0  02:01        0.89
  WS02004404           JUNCTION     0.76     0.96     6.81     0  02:01        0.96
  WS02004405           JUNCTION     0.75     0.95     6.80     0  02:01        0.95
  WS02004406           JUNCTION     0.76     0.95     6.78     0  02:01        0.95
  WS02004407           JUNCTION     0.20     0.29     6.61     0  02:01        0.29
  WS02004409           JUNCTION     0.43     0.66     6.43     0  02:02        0.66
  WS02004410           JUNCTION     0.45     0.67     6.39     0  02:02        0.67
  WS02004411           JUNCTION     0.47     0.68     6.36     0  02:02        0.68
  WS02004412           JUNCTION     0.49     0.69     6.33     0  02:02        0.69
  WS02004413           JUNCTION     0.66     0.85     6.32     0  02:03        0.85
  WS02006109           JUNCTION     0.68     1.31     7.92     0  02:15        1.03
  WS02006110           JUNCTION     0.68     1.61     8.19     0  02:15        0.97
  WS02006111           JUNCTION     0.19     1.67     8.37     0  00:00        0.56
  WS02006112           JUNCTION     0.78     2.68     8.56     0  00:00        1.29
  WS02006113           JUNCTION     0.29     1.50     8.40     0  00:00        0.45
  WS02006115           JUNCTION     0.50     1.69     7.83     0  00:00        0.86
  WS02006116           JUNCTION     0.59     1.11     7.15     0  00:00        0.82
  WS02006228           JUNCTION     0.66     1.64     8.29     0  00:00        1.07
  WS02006229           JUNCTION     0.63     1.57     8.26     0  02:15        1.16
  WS02006230           JUNCTION     0.62     1.88     8.63     0  02:15        1.15
  WS02006231           JUNCTION     0.44     1.84     8.96     0  02:32        0.89
  WS02006232           JUNCTION     0.57     1.70     8.74     0  02:32        1.30
  WS02006234           JUNCTION     0.49     1.68     8.84     0  02:14        1.52
  WS02006235           JUNCTION     0.52     2.00     9.16     0  01:40        2.00
  WS02006238           JUNCTION     0.55     2.15     9.29     0  01:40        2.15
  WS02006239           JUNCTION     0.52     2.00     9.21     0  02:14        1.87
  WS02006240           JUNCTION     0.49     1.84     9.13     0  02:14        1.80
  WS02006242           JUNCTION     0.57     1.55     8.82     0  01:24        1.55
  WS02006243           JUNCTION     0.47     1.48     8.90     0  01:42        1.48
  WS02006245           JUNCTION     0.47     1.43     8.92     0  01:42        1.43
  WS02006247           JUNCTION     0.50     1.34     8.84     0  02:32        1.34
  WS02006248           JUNCTION     0.46     1.10     8.69     0  01:40        1.10
  WS02006249           JUNCTION     0.50     1.09     8.69     0  01:32        1.09
  WS02006251           JUNCTION     0.50     1.81     9.48     0  02:15        1.13
  WS02006252           JUNCTION     0.39     1.50     9.74     0  01:23        1.04
  WS02006256           JUNCTION     0.82     2.35     9.28     0  01:19        2.35
  WSF200               JUNCTION     0.19     0.29     5.52     0  02:02        0.29
  YS02001580           JUNCTION     0.12     1.05     9.59     0  01:16        0.79
  YS02001583           JUNCTION     0.15     1.14     9.64     0  01:16        0.91
  YS02001586           JUNCTION     0.22     1.13     9.30     0  01:16        1.13
  YS02001590           JUNCTION     0.31     1.40     9.26     0  01:28        1.40
  YS02001593           JUNCTION     0.26     1.46     9.32     0  01:28        1.46
  YS02001596           JUNCTION     0.35     1.80     9.22     0  01:32        1.80
  YS02001600           JUNCTION     0.40     1.87     9.00     0  01:16        1.87
  YS02001601           JUNCTION     0.56     2.06     8.90     0  01:15        2.06
  YS02001602           JUNCTION     0.48     1.87     8.77     0  01:16        1.87
  YS02001605           JUNCTION     0.44     1.78     8.68     0  01:16        1.78
  YS02001607           JUNCTION     0.43     1.68     8.53     0  01:16        1.68
  YS02001610           JUNCTION     0.47     1.68     8.48     0  01:16        1.68
  YS02001613           JUNCTION     0.43     1.70     8.54     0  01:28        1.70
  YS02001616           JUNCTION     0.37     1.61     8.52     0  01:16        1.60
  YS02001619           JUNCTION     0.35     1.61     8.54     0  01:16        1.61
  YS02001622           JUNCTION     0.35     1.62     8.52     0  01:16        1.62
  YS02001625           JUNCTION     0.57     1.78     8.38     0  01:23        1.78
  YS02001629           JUNCTION     0.44     1.85     8.40     0  01:16        1.85
  YS02001633           JUNCTION     0.51     2.08     8.53     0  01:28        2.08
  YS02001641           JUNCTION     0.48     2.10     8.54     0  01:32        2.10
  YS02001644           JUNCTION     0.48     1.92     8.35     0  01:32        1.92
  YS02001647           JUNCTION     0.30     1.90     8.51     0  01:44        1.90
  YS02001649           JUNCTION     0.34     2.05     8.44     0  01:32        2.05
  YS02001652           JUNCTION     0.25     2.16     8.76     0  01:44        2.16
  YS02001655           JUNCTION     0.20     2.20     9.05     0  01:55        1.96
  YS02001658           JUNCTION     0.14     2.30     9.44     0  02:14        1.02
  YS02001661           JUNCTION     0.14     0.66     8.06     0  01:47        0.65
  YS02001664           JUNCTION     0.05     0.21     8.14     0  01:27        0.21
  YS02001745           JUNCTION     0.06     0.42     7.94     0  02:14        0.41
  YS02001748           JUNCTION     0.13     0.85     7.93     0  02:15        0.82
  YS02001751           JUNCTION     0.17     1.53     8.41     0  02:15        1.00
  YS02001754           JUNCTION     0.23     1.61     8.22     0  01:27        1.24
  YS02001757           JUNCTION     0.36     2.21     8.47     0  01:32        2.21
  YS02001759           JUNCTION     0.31     1.85     8.22     0  01:44        1.85
  YS02001762           JUNCTION     0.30     1.78     8.18     0  02:23        1.78
  YS02001765           JUNCTION     0.28     2.10     8.55     0  01:32        2.10
  YS02001767           JUNCTION     0.27     2.03     8.52     0  01:32        2.03
  YS02001770           JUNCTION     0.29     1.95     8.44     0  01:32        1.95
  YS02001774           JUNCTION     0.34     2.05     8.47     0  01:32        2.05
  YS02001779           JUNCTION     0.21     1.66     8.35     0  01:32        1.30
  YS02001783           JUNCTION     0.21     1.42     7.56     0  01:32        1.35
  YS02001784           JUNCTION     0.21     1.39     7.45     0  01:32        1.11
  YS02001786           JUNCTION     0.18     0.94     6.97     0  01:32        0.86
  YS02001788           JUNCTION     0.13     0.61     6.59     0  01:32        0.61
  YS02001790           JUNCTION     0.15     0.72     6.36     0  01:31        0.71
  YS02001791           JUNCTION     0.09     0.43     5.90     0  01:30        0.43
  YS02001793           JUNCTION     0.05     0.26     5.09     0  01:39        0.26
  YS02001882           JUNCTION     0.26     1.83     8.55     0  01:32        1.83
  YS02001884           JUNCTION     0.34     1.76     8.38     0  01:28        1.65
  YS02001887           JUNCTION     0.40     1.81     8.35     0  01:28        1.74
  YS02001890           JUNCTION     0.43     1.81     8.32     0  01:28        1.81
  YS02001895           JUNCTION     0.23     1.75     8.50     0  01:28        1.75
  YS02001898           JUNCTION     0.24     1.77     8.51     0  01:32        1.77
  YS02001901           JUNCTION     0.34     1.87     8.48     0  01:32        1.87
  YS02001904           JUNCTION     0.32     1.68     8.31     0  01:42        1.68
  YS02001907           JUNCTION     0.59     1.96     8.25     0  01:25        1.96
  YS02001910           JUNCTION     0.42     1.85     8.36     0  01:32        1.79
  YS02001915           JUNCTION     0.26     1.74     8.45     0  01:28        1.74
  YS02001918           JUNCTION     0.13     1.29     8.35     0  01:26        1.29
  YS02001920           JUNCTION     0.19     2.14     9.15     0  01:32        2.14
  YS02001923           JUNCTION     0.10     1.12     8.38     0  01:26        1.11
  YS02001926           JUNCTION     0.13     0.94     8.38     0  01:26        0.92
  YS02001929           JUNCTION     0.07     0.71     8.40     0  01:26        0.67
  YS02006553           JUNCTION     0.59     2.19     8.47     0  01:32        2.19
  YS02006556           JUNCTION     0.57     2.18     8.49     0  01:28        2.18
  YS02006558           JUNCTION     0.60     2.31     8.58     0  01:28        2.31
  YS02006561           JUNCTION     0.12     0.94     7.60     0  01:28        0.86
  YS02163301           JUNCTION     0.46     2.03     8.55     0  01:28        2.03
  YS02163601           JUNCTION     0.53     2.08     8.48     0  01:32        2.08
  YS02164001           JUNCTION     0.47     2.10     8.56     0  01:32        2.10
  CC-1                 OUTFALL      0.00     0.00     0.00     0  00:00        0.00
  CC-2                 OUTFALL      0.00     0.00     0.00     0  00:00        0.00
  JK-1                 OUTFALL      0.00     0.00     0.00     0  00:00        0.00
  JK-2                 OUTFALL      0.00     0.00     0.00     0  00:00        0.00
  WSC                  OUTFALL      0.20     0.29     0.96     0  02:05        0.29
  CC-storage           STORAGE      0.91     1.82     7.32     0  02:47        1.82
  JK-storage           STORAGE      1.46     4.23     5.03     0  01:56        4.21
  
  
  *******************
  Node Inflow Summary
  *******************
  
  -------------------------------------------------------------------------------------------------
                                  Maximum  Maximum                  Lateral       Total        Flow
                                  Lateral    Total  Time of Max      Inflow      Inflow     Balance
                                   Inflow   Inflow   Occurrence      Volume      Volume       Error
  Node                 Type           LPS      LPS  days hr:min    10^6 ltr    10^6 ltr     Percent
  -------------------------------------------------------------------------------------------------
  WS02003060           JUNCTION     16.53   541.77     0  02:03       0.476        7.73       0.030
  WS02003066           JUNCTION      0.00   525.24     0  02:03           0        7.26       0.018
  WS02003067           JUNCTION      0.00   525.14     0  02:03           0        7.26       0.056
  WS02003069           JUNCTION      0.32   542.01     0  02:04     0.00922        7.74       0.049
  WS02003072           JUNCTION      0.00   541.36     0  02:04           0        7.74       0.086
  WS02003073           JUNCTION      1.82   543.32     0  02:04      0.0524        7.78       0.069
  WS02004401           JUNCTION      0.00  1786.04     0  00:00           0        7.37       0.147
  WS02004402           JUNCTION      0.00  1248.69     0  00:01           0        7.36       0.148
  WS02004403           JUNCTION      0.00   929.44     0  00:01           0        7.35       0.145
  WS02004404           JUNCTION      0.00   877.02     0  00:01           0        7.34       0.141
  WS02004405           JUNCTION      0.00   827.31     0  00:01           0        7.33       0.151
  WS02004406           JUNCTION      0.00   768.45     0  00:02           0        7.32       0.292
  WS02004407           JUNCTION      0.00   530.86     0  02:01           0         7.3       0.014
  WS02004409           JUNCTION      0.00   530.36     0  02:01           0         7.3       0.035
  WS02004410           JUNCTION      0.00   529.30     0  02:01           0        7.29       0.059
  WS02004411           JUNCTION      0.00   526.84     0  02:01           0        7.29       0.076
  WS02004412           JUNCTION      0.00   526.06     0  02:02           0        7.28       0.099
  WS02004413           JUNCTION      0.00   525.75     0  02:02           0        7.28       0.182
  WS02006109           JUNCTION      0.00  1446.81     0  00:00           0        7.27      -0.052
  WS02006110           JUNCTION      0.00   561.40     0  02:15           0        7.25      -0.753
  WS02006111           JUNCTION      0.00  1180.41     0  00:00           0         7.3      -0.585
  WS02006112           JUNCTION      0.00  2307.30     0  00:00           0        7.34       0.001
  WS02006113           JUNCTION      0.00   572.31     0  02:15           0        7.26      -0.524
  WS02006115           JUNCTION      0.00   953.54     0  00:00           0        7.31      -0.489
  WS02006116           JUNCTION      0.00  1264.47     0  00:00           0        7.35      -0.318
  WS02006228           JUNCTION      0.00   869.18     0  00:00           0        7.26       0.003
  WS02006229           JUNCTION      0.00   561.07     0  02:32           0        7.24      -0.043
  WS02006230           JUNCTION     10.28   706.67     0  00:00       0.296        7.23       0.022
  WS02006231           JUNCTION      0.00   606.85     0  02:32           0        6.92       0.003
  WS02006232           JUNCTION      0.00   603.68     0  02:32           0        6.92       0.059
  WS02006234           JUNCTION      0.00   589.00     0  02:32           0        6.91      -0.017
  WS02006235           JUNCTION      0.00   568.76     0  02:32           0        6.91       0.022
  WS02006238           JUNCTION      0.00   424.48     0  02:00           0        6.44      -0.014
  WS02006239           JUNCTION      0.00   423.46     0  02:00           0        6.44      -0.031
  WS02006240           JUNCTION      0.00   422.37     0  02:00           0        6.44       0.002
  WS02006242           JUNCTION      0.00   422.21     0  02:00           0        6.44       0.030
  WS02006243           JUNCTION      0.00   421.46     0  02:00           0        6.44      -0.001
  WS02006245           JUNCTION      0.00   420.81     0  02:00           0        6.45       0.055
  WS02006247           JUNCTION      0.00   420.38     0  02:00           0        6.45       0.009
  WS02006248           JUNCTION      0.00   421.51     0  02:00           0        6.45       0.012
  WS02006249           JUNCTION      0.00   422.11     0  02:15           0        6.58       0.054
  WS02006251           JUNCTION      0.00   404.97     0  02:15           0        6.58       0.014
  WS02006252           JUNCTION      0.00   400.00     0  01:23           0        6.57      -0.125
  WS02006256           JUNCTION      0.00   300.00     0  01:19           0       0.702      -0.382
  WSF200               JUNCTION      0.00   525.33     0  02:03           0        7.26       0.007
  YS02001580           JUNCTION      0.00    78.19     0  01:16           0     0.00462       2.100
  YS02001583           JUNCTION      0.00   120.43     0  01:16           0      0.0163      -3.612
  YS02001586           JUNCTION    329.08   329.69     0  01:44         2.1        2.11       0.063
  YS02001590           JUNCTION      0.00   339.45     0  01:32           0        2.09      -0.025
  YS02001593           JUNCTION      0.00   328.71     0  01:32           0        2.09       0.007
  YS02001596           JUNCTION      0.00   318.05     0  01:36           0        2.09      -0.015
  YS02001600           JUNCTION      0.00   318.30     0  01:42           0        2.09       0.010
  YS02001601           JUNCTION    538.35   854.09     0  01:27        2.87        4.96       0.007
  YS02001602           JUNCTION      0.00   538.66     0  01:15           0        3.33       0.008
  YS02001605           JUNCTION      0.00   538.96     0  01:15           0        3.05       0.010
  YS02001607           JUNCTION      0.00   539.21     0  01:15           0        3.05       0.061
  YS02001610           JUNCTION      0.00   548.20     0  01:16           0        3.05       0.082
  YS02001613           JUNCTION      0.00   554.79     0  01:16           0         2.8       0.062
  YS02001616           JUNCTION      0.00   558.35     0  01:16           0         2.8       0.026
  YS02001619           JUNCTION    554.56   901.94     0  01:22        3.37        6.17       0.002
  YS02001622           JUNCTION      0.00   901.95     0  01:22           0        6.16       0.000
  YS02001625           JUNCTION      0.00   915.17     0  01:16           0        6.16       0.194
  YS02001629           JUNCTION      0.00   915.00     0  01:16           0        5.77      -0.008
  YS02001633           JUNCTION    398.13  1277.02     0  01:22         2.1        7.87       0.039
  YS02001641           JUNCTION      0.00  1276.75     0  01:22           0        7.87       0.034
  YS02001644           JUNCTION    349.54  1611.21     0  01:23        1.82        9.69       0.029
  YS02001647           JUNCTION      0.00  1611.49     0  01:23           0        9.67      -0.013
  YS02001649           JUNCTION      0.00  1859.46     0  01:18           0        11.4       0.032
  YS02001652           JUNCTION      0.00   408.80     0  01:45           0         1.7       0.127
  YS02001655           JUNCTION      0.00   501.62     0  01:35           0        1.69      -1.043
  YS02001658           JUNCTION      0.00   728.38     0  01:47           0        1.79      -1.181
  YS02001661           JUNCTION      0.00   483.64     0  01:47           0         1.8       0.213
  YS02001664           JUNCTION    319.09   319.09     0  01:27        1.67        1.67      -0.008
  YS02001745           JUNCTION    202.22   202.22     0  02:23        1.01        1.03       0.326
  YS02001748           JUNCTION      0.00   353.64     0  01:49           0        1.03      -0.348
  YS02001751           JUNCTION      0.00   301.32     0  01:31           0        1.01      -0.279
  YS02001754           JUNCTION      0.00   286.84     0  01:27           0        1.01      -0.291
  YS02001757           JUNCTION      0.00  2631.00     0  01:27           0        15.9       0.015
  YS02001759           JUNCTION    278.61   746.50     0  01:25        1.39        3.51      -0.039
  YS02001762           JUNCTION      0.00   466.78     0  01:25           0        2.12      -0.012
  YS02001765           JUNCTION      0.00   466.25     0  01:25           0        2.11       0.004
  YS02001767           JUNCTION      0.00   468.87     0  01:25           0        2.11       0.005
  YS02001770           JUNCTION    417.19   476.09     0  01:25        2.11        2.17      -0.012
  YS02001774           JUNCTION      0.00    98.19     0  01:21           0      0.0886       1.455
  YS02001779           JUNCTION      0.00    87.15     0  01:25           0      0.0302      -1.681
  YS02001783           JUNCTION      0.00  1147.42     0  01:28           0        6.49       0.001
  YS02001784           JUNCTION      0.00  1148.20     0  01:28           0        6.49       0.003
  YS02001786           JUNCTION      0.00  1149.34     0  01:28           0        6.49       0.001
  YS02001788           JUNCTION      0.00  1151.08     0  01:28           0        6.49       0.002
  YS02001790           JUNCTION      0.00  1154.68     0  01:29           0        6.49       0.002
  YS02001791           JUNCTION      0.00  1267.94     0  01:26           0        6.49      -0.013
  YS02001793           JUNCTION      0.00  1215.96     0  01:33           0        6.49       0.002
  YS02001882           JUNCTION      0.00    83.21     0  01:14           0      0.0176       4.148
  YS02001884           JUNCTION      0.00   133.41     0  01:13           0      0.0561       3.921
  YS02001887           JUNCTION    290.77   298.53     0  01:20        1.44        1.47       0.305
  YS02001890           JUNCTION      0.00   297.15     0  01:20           0        1.43       0.286
  YS02001895           JUNCTION      0.00   297.35     0  01:24           0        1.43       0.185
  YS02001898           JUNCTION      0.00   298.73     0  01:24           0        1.42      -0.064
  YS02001901           JUNCTION      0.00   300.86     0  01:24           0        1.43       0.192
  YS02001904           JUNCTION      0.00   302.06     0  01:24           0        1.44       0.178
  YS02001907           JUNCTION      0.00   953.86     0  01:27           0        4.52       0.371
  YS02001910           JUNCTION      0.00   666.22     0  01:27           0        3.07       0.222
  YS02001915           JUNCTION    385.56   666.00     0  01:27        2.02        3.08       0.032
  YS02001918           JUNCTION      0.00   280.02     0  01:27           0        1.06       0.010
  YS02001920           JUNCTION      0.00   280.14     0  01:27           0        1.06       0.056
  YS02001923           JUNCTION      0.00   266.19     0  01:27           0        1.06      -0.022
  YS02001926           JUNCTION      0.00   241.78     0  01:26           0        1.06       0.038
  YS02001929           JUNCTION    194.25   194.25     0  01:29        1.06        1.06      -0.008
  YS02006553           JUNCTION      0.00   787.80     0  01:32           0        4.46       0.257
  YS02006556           JUNCTION      0.00   782.57     0  01:32           0        4.48       0.157
  YS02006558           JUNCTION    416.54  1144.15     0  01:28         2.1        6.54       0.047
  YS02006561           JUNCTION      0.00  1149.81     0  01:28           0        6.49       0.004
  YS02163301           JUNCTION      0.00   902.15     0  01:22           0        5.78       0.025
  YS02163601           JUNCTION      0.00  1276.92     0  01:22           0        7.86       0.063
  YS02164001           JUNCTION      0.00  1276.90     0  01:23           0        7.86       0.031
  CC-1                 OUTFALL       0.00   683.00     0  01:27           0        5.43       0.000
  CC-2                 OUTFALL       0.00   683.00     0  01:34           0        4.75       0.000
  JK-1                 OUTFALL       0.00  1000.00     0  00:05           0        3.16       0.000
  JK-2                 OUTFALL       0.00  1000.00     0  00:05           0        2.74       0.000
  WSC                  OUTFALL       0.00   542.71     0  02:05           0        7.78       0.000
  CC-storage           STORAGE       0.00  2611.76     0  01:27           0        18.1      -0.173
  JK-storage           STORAGE       0.00  1222.47     0  01:45           0        6.64      -0.245
  
  
  **********************
  Node Surcharge Summary
  **********************
  
  Surcharging occurs when water rises above the top of the highest conduit.
  ---------------------------------------------------------------------
                                               Max. Height   Min. Depth
                                   Hours       Above Crown    Below Rim
  Node                 Type      Surcharged         Meters       Meters
  ---------------------------------------------------------------------
  WS02006109           JUNCTION        2.72          0.485        1.335
  WS02006110           JUNCTION        0.39          0.699        1.151
  WS02006111           JUNCTION        0.01          0.856        1.014
  WS02006112           JUNCTION        0.47          1.680        0.000
  WS02006113           JUNCTION        0.01          0.705        1.225
  WS02006115           JUNCTION        0.01          0.682        1.568
  WS02006116           JUNCTION        0.01          0.053        2.237
  WS02006228           JUNCTION        2.70          0.810        1.390
  WS02006229           JUNCTION        2.73          0.766        1.684
  WS02006230           JUNCTION        0.42          0.802        0.768
  WS02006231           JUNCTION        0.51          1.128        0.402
  WS02006232           JUNCTION        2.78          1.000        0.480
  WS02006234           JUNCTION        0.70          0.960        0.280
  WS02006235           JUNCTION        2.69          1.290        0.000
  WS02006238           JUNCTION        2.74          1.430        0.000
  WS02006239           JUNCTION        2.71          1.263        0.027
  WS02006240           JUNCTION        2.73          1.129        0.261
  WS02006242           JUNCTION        2.78          0.820        0.000
  WS02006243           JUNCTION        2.74          0.770        0.000
  WS02006245           JUNCTION        2.74          0.724        0.126
  WS02006247           JUNCTION        2.75          0.626        0.134
  WS02006248           JUNCTION        2.73          0.380        0.000
  WS02006249           JUNCTION        2.74          0.390        0.000
  WS02006251           JUNCTION        0.56          0.783        0.397
  WS02006252           JUNCTION        2.82          1.100        0.000
  WS02006256           JUNCTION        7.85          2.050        0.000
  YS02001580           JUNCTION        1.16          0.450        0.000
  YS02001583           JUNCTION        1.19          0.500        0.000
  YS02001586           JUNCTION        1.80          0.510        0.000
  YS02001590           JUNCTION        1.86          0.750        0.000
  YS02001593           JUNCTION        1.86          0.840        0.000
  YS02001596           JUNCTION        1.95          1.070        0.000
  YS02001600           JUNCTION        2.02          1.190        0.000
  YS02001601           JUNCTION        2.20          1.440        0.000
  YS02001602           JUNCTION        2.14          1.270        0.000
  YS02001605           JUNCTION        2.12          1.180        0.000
  YS02001607           JUNCTION        1.84          0.680        0.000
  YS02001610           JUNCTION        1.87          0.680        0.000
  YS02001613           JUNCTION        1.84          0.700        0.000
  YS02001616           JUNCTION        1.81          0.610        0.000
  YS02001619           JUNCTION        1.81          0.610        0.000
  YS02001622           JUNCTION        1.80          0.620        0.000
  YS02001625           JUNCTION        1.93          0.780        0.000
  YS02001629           JUNCTION        1.76          0.470        0.000
  YS02001633           JUNCTION        1.96          1.060        0.000
  YS02001641           JUNCTION        1.94          1.100        0.000
  YS02001644           JUNCTION        1.92          0.920        0.000
  YS02001647           JUNCTION        1.69          0.900        0.000
  YS02001649           JUNCTION        1.80          1.050        0.000
  YS02001652           JUNCTION        1.64          1.130        0.000
  YS02001655           JUNCTION        0.77          1.200        0.000
  YS02001658           JUNCTION        0.03          1.300        0.000
  YS02001751           JUNCTION        0.03          0.527        0.673
  YS02001754           JUNCTION        1.57          0.564        0.586
  YS02001757           JUNCTION        1.86          1.210        0.000
  YS02001759           JUNCTION        1.78          0.855        0.355
  YS02001762           JUNCTION        1.75          0.783        0.367
  YS02001765           JUNCTION        1.70          1.100        0.000
  YS02001767           JUNCTION        1.68          1.030        0.000
  YS02001770           JUNCTION        1.67          0.920        0.000
  YS02001774           JUNCTION        1.74          1.050        0.000
  YS02001779           JUNCTION        1.55          0.662        0.018
  YS02001783           JUNCTION        1.03          0.624        0.976
  YS02001784           JUNCTION        0.93          0.586        0.904
  YS02001786           JUNCTION        0.48          0.135        1.295
  YS02001882           JUNCTION        0.66          0.830        0.000
  YS02001884           JUNCTION        0.71          0.701        0.169
  YS02001887           JUNCTION        0.99          0.765        0.185
  YS02001890           JUNCTION        1.04          0.760        0.000
  YS02001895           JUNCTION        0.62          0.750        0.000
  YS02001898           JUNCTION        0.61          0.740        0.000
  YS02001901           JUNCTION        0.87          0.870        0.000
  YS02001904           JUNCTION        0.79          0.679        0.171
  YS02001907           JUNCTION        1.81          0.950        0.000
  YS02001910           JUNCTION        1.10          0.850        0.250
  YS02001915           JUNCTION        0.67          0.735        0.265
  YS02001918           JUNCTION        0.45          0.288        0.522
  YS02001920           JUNCTION        0.48          1.140        0.000
  YS02006553           JUNCTION        1.82          1.190        0.000
  YS02006556           JUNCTION        1.29          1.136        0.214
  YS02006558           JUNCTION        1.26          1.209        0.191
  YS02006561           JUNCTION        0.38          0.140        1.010
  YS02163301           JUNCTION        1.95          1.030        0.000
  YS02163601           JUNCTION        1.99          1.080        0.000
  YS02164001           JUNCTION        1.94          1.100        0.000
  
  
  *********************
  Node Flooding Summary
  *********************
  
  Flooding refers to all water that overflows a node, whether it ponds or not.
  --------------------------------------------------------------------------
                                                             Total   Maximum
                                 Maximum   Time of Max       Flood    Ponded
                        Hours       Rate    Occurrence      Volume     Depth
  Node                 Flooded       LPS   days hr:min    10^6 ltr    Meters
  --------------------------------------------------------------------------
  WS02006112              0.01   1405.86      0  00:00       0.047     0.000
  WS02006235              0.01     10.02      0  01:40       0.000     0.000
  WS02006238              0.01      8.12      0  01:40       0.000     0.000
  WS02006242              0.01     52.18      0  01:24       0.000     0.000
  WS02006243              0.01      3.04      0  02:32       0.000     0.000
  WS02006248              0.01     19.06      0  01:40       0.000     0.000
  WS02006249              0.54     80.80      0  01:40       0.127     0.000
  WS02006252              0.01      0.91      0  01:23       0.000     0.000
  WS02006256              0.65    283.68      0  01:19       0.236     0.000
  YS02001580              0.01     47.87      0  01:16       0.000     0.000
  YS02001583              0.01     92.05      0  01:16       0.000     0.000
  YS02001586              0.37     56.36      0  01:16       0.008     0.000
  YS02001590              0.01      0.39      0  01:28       0.000     0.000
  YS02001593              0.01      0.22      0  01:32       0.000     0.000
  YS02001596              0.01      0.43      0  01:32       0.000     0.000
  YS02001600              0.01     15.60      0  01:28       0.000     0.000
  YS02001601              1.76    456.23      0  01:27       1.629     0.000
  YS02001602              1.62     62.19      0  01:28       0.283     0.000
  YS02001605              0.01      4.55      0  01:16       0.000     0.000
  YS02001607              0.01     14.54      0  01:16       0.000     0.000
  YS02001610              1.06    110.08      0  01:44       0.251     0.000
  YS02001613              0.01      0.29      0  01:28       0.000     0.000
  YS02001616              0.01     52.91      0  01:16       0.000     0.000
  YS02001619              0.01     19.54      0  01:16       0.000     0.000
  YS02001622              0.01     71.41      0  01:16       0.000     0.000
  YS02001625              1.05    231.31      0  01:45       0.383     0.000
  YS02001629              0.02     79.91      0  01:16       0.001     0.000
  YS02001633              0.01      1.65      0  01:32       0.000     0.000
  YS02001641              0.01      0.69      0  01:32       0.000     0.000
  YS02001644              0.01     21.03      0  02:14       0.000     0.000
  YS02001647              0.01     10.78      0  01:44       0.000     0.000
  YS02001649              0.01     44.61      0  01:44       0.000     0.000
  YS02001652              0.01     70.59      0  01:55       0.000     0.000
  YS02001655              0.01    245.26      0  01:55       0.000     0.000
  YS02001658              0.01    181.38      0  02:14       0.000     0.000
  YS02001757              0.01      7.60      0  01:32       0.000     0.000
  YS02001765              0.01      1.75      0  01:32       0.000     0.000
  YS02001767              0.01      1.83      0  01:32       0.000     0.000
  YS02001770              0.01      7.19      0  01:32       0.000     0.000
  YS02001774              0.01      6.14      0  01:32       0.000     0.000
  YS02001882              0.01      1.02      0  01:32       0.000     0.000
  YS02001890              0.01     26.34      0  01:28       0.000     0.000
  YS02001895              0.01      0.97      0  01:28       0.000     0.000
  YS02001898              0.01      0.08      0  01:32       0.000     0.000
  YS02001901              0.01      0.88      0  01:32       0.000     0.000
  YS02001907              0.19    230.59      0  01:27       0.057     0.000
  YS02001920              0.01      1.31      0  01:32       0.000     0.000
  YS02006553              0.01      0.74      0  01:32       0.000     0.000
  YS02163301              0.01      2.12      0  01:32       0.000     0.000
  YS02163601              0.01      3.72      0  01:53       0.000     0.000
  YS02164001              0.01      3.72      0  01:32       0.000     0.000
  
  
  **********************
  Storage Volume Summary
  **********************
  
  --------------------------------------------------------------------------------------------------
                         Average     Avg  Evap Exfil       Maximum     Max    Time of Max    Maximum
                          Volume    Pcnt  Pcnt  Pcnt        Volume    Pcnt     Occurrence    Outflow
  Storage Unit           1000 m3    Full  Loss  Loss       1000 m3    Full    days hr:min        LPS
  --------------------------------------------------------------------------------------------------
  CC-storage               2.525      39     0     0         5.076      79       0  02:47    1766.00
  JK-storage               0.073      25     0     0         0.212      73       0  01:56    2300.00
  
  
  ***********************
  Outfall Loading Summary
  ***********************
  
  -----------------------------------------------------------
                         Flow       Avg       Max       Total
                         Freq      Flow      Flow      Volume
  Outfall Node           Pcnt       LPS       LPS    10^6 ltr
  -----------------------------------------------------------
  CC-1                  18.62    683.00    683.00       5.428
  CC-2                  16.81    683.00    683.00       4.751
  JK-1                   9.13   1000.00   1000.00       3.159
  JK-2                   8.04   1000.00   1000.00       2.737
  WSC                  100.00    264.58    542.71       7.777
  -----------------------------------------------------------
  System                30.52   3630.58    542.71      23.852
  
  
  ********************
  Link Flow Summary
  ********************
  
  -----------------------------------------------------------------------------
                                 Maximum  Time of Max   Maximum    Max/    Max/
                                  |Flow|   Occurrence   |Veloc|    Full    Full
  Link                 Type          LPS  days hr:min     m/sec    Flow   Depth
  -----------------------------------------------------------------------------
  1                    CONDUIT    542.71     0  02:05      2.81    0.19    0.29
  WS02003060WS02003069 CONDUIT    541.69     0  02:04      1.64    0.21    0.33
  WS02003066WSF200     CONDUIT    525.33     0  02:03      2.84    0.09    0.22
  WS02003067WS02003066 CONDUIT    525.24     0  02:03      1.19    0.17    0.41
  WS02003069WS02003072 CONDUIT    541.36     0  02:04      1.36    0.26    0.38
  WS02003072WS02003073 CONDUIT    541.50     0  02:04      1.42    1.17    0.37
  WS02004401WS02004402 CONDUIT   1248.69     0  00:01      2.52    1.50    0.86
  WS02004402WS02004403 CONDUIT    929.44     0  00:01      2.21    1.34    0.88
  WS02004403WS02004404 CONDUIT    877.02     0  00:01      2.01    0.63    0.92
  WS02004404WS02004405 CONDUIT    827.31     0  00:01      2.30    8.11    0.96
  WS02004405WS02004406 CONDUIT    768.45     0  00:02      2.19    1.52    0.95
  WS02004406WS02004407 CONDUIT    530.86     0  02:01      1.03    0.24    0.62
  WS02004407WS02004409 CONDUIT    530.36     0  02:01      2.06    0.19    0.48
  WS02004409WS02004410 CONDUIT    529.30     0  02:01      1.39    0.68    0.67
  WS02004410WS02004411 CONDUIT    526.84     0  02:01      1.32    0.72    0.68
  WS02004411WS02004412 CONDUIT    526.06     0  02:02      1.30    0.75    0.69
  WS02004412WS02004413 CONDUIT    525.75     0  02:02      1.26    0.35    0.77
  WS02004413WS02003067 CONDUIT    525.14     0  02:03      1.10    0.22    0.59
  WS02006109WS02006110 CONDUIT   1446.81     0  00:00      2.88    2.78    1.00
  WS02006110WS02006113 CONDUIT    572.31     0  02:15      1.39    0.52    1.00
  WS02006111WS02006112 CONDUIT   2307.30     0  00:00      9.18    1.10    1.00
  WS02006112WS02006115 CONDUIT    953.54     0  00:00      1.24    0.56    1.00
  WS02006113WS02006111 CONDUIT   1180.41     0  00:00      2.46    1.41    1.00
  WS02006115WS02006116 CONDUIT   1264.47     0  00:00      1.74    1.62    1.00
  WS02006116WS02004401 CONDUIT   1786.04     0  00:00      2.94    2.46    0.83
  WS02006228WS02006109 CONDUIT    869.18     0  00:00      1.91    3.80    1.00
  WS02006229WS02006228 CONDUIT    561.30     0  02:32      1.12    1.86    1.00
  WS02006230WS02006229 CONDUIT    696.39     0  00:00      1.89   15.50    1.00
  WS02006231WS02006230 CONDUIT    593.15     0  02:32      1.91    9.00    1.00
  WS02006232WS02006231 CONDUIT    606.85     0  02:32      1.80    1.27    1.00
  WS02006234WS02006232 CONDUIT    603.68     0  02:32      1.57    1.22    1.00
  WS02006235WS02006234 CONDUIT    589.00     0  02:32      1.53    6.21    1.00
  WS02006238WS02006235 CONDUIT    425.47     0  02:20      1.11    0.95    1.00
  WS02006239WS02006238 CONDUIT    424.48     0  02:00      1.10    1.36    1.00
  WS02006240WS02006239 CONDUIT    423.46     0  02:00      1.10    1.33    1.00
  WS02006242WS02006240 CONDUIT    422.37     0  02:00      1.10    1.68    1.00
  WS02006243WS02006242 CONDUIT    422.21     0  02:00      1.16    0.90    1.00
  WS02006245WS02006243 CONDUIT    421.46     0  02:00      1.15    1.25    1.00
  WS02006247WS02006245 CONDUIT    420.81     0  02:00      1.10    3.34    1.00
  WS02006248WS02006247 CONDUIT    420.38     0  02:00      1.17    0.92    1.00
  WS02006249WS02006248 CONDUIT    421.51     0  02:00      1.26    2.31    1.00
  WS02006251WS02006249 CONDUIT    422.11     0  02:15      1.75    1.22    1.00
  WS02006252WS02006251 CONDUIT    404.97     0  02:15     18.35    1.49    1.00
  WS02006256WS02006235 CONDUIT    247.69     0  01:19      3.50    2.62    1.00
  WSF200WS02003060     CONDUIT    525.24     0  02:03      2.05    0.12    0.28
  YS02001580YS02001583 CONDUIT     78.19     0  01:16      0.57    0.30    1.00
  YS02001583YS02001586 CONDUIT    120.43     0  01:16      0.53    0.18    1.00
  YS02001586YS02001590 CONDUIT    339.45     0  01:32      1.26    0.59    1.00
  YS02001590YS02001593 CONDUIT    328.71     0  01:32      1.16    2.06    1.00
  YS02001593YS02001596 CONDUIT    318.05     0  01:36      1.67    0.50    1.00
  YS02001596YS02001600 CONDUIT    318.30     0  01:42      1.23    0.62    1.00
  YS02001600YS02001601 CONDUIT    318.40     0  01:42      1.13    0.55    1.00
  YS02001601YS02001602 CONDUIT    538.66     0  01:15      1.91    1.95    1.00
  YS02001602YS02001605 CONDUIT    538.96     0  01:15      1.91   11.41    1.00
  YS02001605YS02001607 CONDUIT    539.21     0  01:15      1.91    2.96    1.00
  YS02001607YS02001610 CONDUIT    548.20     0  01:16      0.75    0.52    1.00
  YS02001610YS02001613 CONDUIT    554.79     0  01:16      0.71    0.64    1.00
  YS02001613YS02001616 CONDUIT    558.35     0  01:16      0.75    0.48    1.00
  YS02001616YS02001619 CONDUIT    532.92     0  01:16      0.81    0.93    1.00
  YS02001619YS02001622 CONDUIT    901.95     0  01:22      1.69    1.33    1.00
  YS02001622YS02001625 CONDUIT    915.17     0  01:16      1.17    0.49    1.00
  YS02001625YS02001629 CONDUIT    915.00     0  01:16      1.18    0.44    1.00
  YS02001629YS02163301 CONDUIT    902.15     0  01:22      1.15    1.11    1.00
  YS02001633YS02163601 CONDUIT   1276.92     0  01:22      1.63    1.34    1.00
  YS02001641YS02001644 CONDUIT   1276.63     0  01:22      1.63    4.13    1.00
  YS02001644YS02001647 CONDUIT   1611.49     0  01:23      2.12    0.95    1.00
  YS02001647YS02001649 CONDUIT   1619.88     0  01:23      2.31    0.86    1.00
  YS02001649YS02001757 CONDUIT   1859.60     0  01:22      2.56    1.13    1.00
  YS02001652YS02001649 CONDUIT    408.85     0  01:45      1.24    0.20    1.00
  YS02001655YS02001652 CONDUIT    408.80     0  01:45      1.71    0.20    1.00
  YS02001658YS02001655 CONDUIT    501.62     0  01:35      1.89    0.21    1.00
  YS02001661YS02001658 CONDUIT    728.38     0  01:47      2.13    0.29    0.68
  YS02001664YS02001661 CONDUIT    319.05     0  01:27      1.95    0.10    0.43
  YS02001745YS02001748 CONDUIT    353.64     0  01:49      1.96    0.14    0.54
  YS02001748YS02001751 CONDUIT    301.32     0  01:31      1.62    0.15    0.92
  YS02001751YS02001754 CONDUIT    286.84     0  01:27      1.58    0.14    1.00
  YS02001754YS02001757 CONDUIT    278.46     0  01:45      1.00    0.11    1.00
  YS02001757CaochengTiaoxuchi CONDUIT   2611.76     0  01:27      3.41    1.13    1.00
  YS02001759YS02001757 CONDUIT    747.90     0  01:25      1.31    0.53    1.00
  YS02001762YS02001759 CONDUIT    470.31     0  01:32      0.72    0.54    1.00
  YS02001765YS02001762 CONDUIT    466.78     0  01:25      0.84    0.44    1.00
  YS02001767YS02001765 CONDUIT    466.25     0  01:25      0.94    0.59    1.00
  YS02001770YS02001767 CONDUIT    468.87     0  01:25      0.90    1.86    1.00
  YS02001774YS02001770 CONDUIT     94.81     0  01:24      0.67    0.06    1.00
  YS02001779YS02001774 CONDUIT     87.15     0  01:25      0.17    0.04    1.00
  YS02001783YS02001784 CONDUIT   1148.20     0  01:28      2.28    1.58    1.00
  YS02001784YS02001785 CONDUIT   1149.34     0  01:28      2.29    2.67    1.00
  YS02001786YS02001788 CONDUIT   1151.08     0  01:28      2.45    2.22    0.88
  YS02001788YS02001790 CONDUIT   1154.68     0  01:29      2.69    0.85    0.83
  YS02001790YS02001791 CONDUIT   1267.94     0  01:26      3.41    1.38    0.70
  YS02001791YS02001793 CONDUIT   1215.96     0  01:33      6.75    0.52    0.42
  YS02001793JiankangQianchi CONDUIT   1222.47     0  01:45      2.46    0.10    0.63
  YS02001882YS02001884 CONDUIT     83.21     0  01:14      0.39    0.10    1.00
  YS02001884YS02001887 CONDUIT    133.41     0  01:13      0.35    0.18    1.00
  YS02001887YS02001890 CONDUIT    297.15     0  01:20      0.48    0.51    1.00
  YS02001890YS02001895 CONDUIT    297.35     0  01:24      0.44    0.14    1.00
  YS02001895YS02001898 CONDUIT    298.73     0  01:24      0.72    0.52    1.00
  YS02001898YS02001901 CONDUIT    300.86     0  01:24      0.71    0.19    1.00
  YS02001901YS02001904 CONDUIT    302.06     0  01:24      0.39    0.47    1.00
  YS02001904YS02001907 CONDUIT    301.05     0  01:24      0.38    0.11    1.00
  YS02001907YS02006553 CONDUIT    787.80     0  01:32      0.88    0.93    1.00
  YS02001910YS02001907 CONDUIT    666.08     0  01:27      0.85    0.38    1.00
  YS02001915YS02001910 CONDUIT    666.22     0  01:27      1.24    0.33    1.00
  YS02001918YS02001915 CONDUIT    280.44     0  01:27      0.45    0.15    1.00
  YS02001920YS02001918 CONDUIT    280.02     0  01:27      0.70    0.27    1.00
  YS02001923YS02001920 CONDUIT    280.14     0  01:27      0.80    0.13    1.00
  YS02001926YS02001923 CONDUIT    266.19     0  01:27      0.92    0.38    0.92
  YS02001929YS02001926 CONDUIT    241.78     0  01:26      1.03    0.11    0.82
  YS02006553YS02006556 CONDUIT    782.57     0  01:32      1.00    0.67    1.00
  YS02006556YS02006558 CONDUIT    776.36     0  01:37      0.99    0.61    1.00
  YS02006558YS02006561 CONDUIT   1149.81     0  01:28      4.07    2.54    1.00
  YS02006561YS02001783 CONDUIT   1147.42     0  01:28      2.28    0.59    1.00
  YS02163301YS02001633 CONDUIT    902.28     0  01:22      1.15    0.85    1.00
  YS02163601YS02164001 CONDUIT   1276.90     0  01:23      1.63    1.13    1.00
  YS02164001YS02001641 CONDUIT   1276.75     0  01:22      1.63    1.74    1.00
  CC-R1                PUMP       683.00     0  01:27              1.00
  CC-R2                PUMP       683.00     0  01:34              1.00
  CC-S1                PUMP       200.00     0  00:05              1.00
  CC-S2                PUMP       200.00     0  01:23              1.00
  JK-R1                PUMP      1000.00     0  00:05              1.00
  JK-R2                PUMP      1000.00     0  00:05              1.00
  JK-S                 PUMP       300.00     0  01:19              1.00
  
  
  ***************************
  Flow Classification Summary
  ***************************
  
  -------------------------------------------------------------------------------------
                      Adjusted    ---------- Fraction of Time in Flow Class ---------- 
                       /Actual         Up    Down  Sub   Sup   Up    Down  Norm  Inlet 
  Conduit               Length    Dry  Dry   Dry   Crit  Crit  Crit  Crit  Ltd   Ctrl  
  -------------------------------------------------------------------------------------
  1                       1.00   0.00  0.00  0.00  0.00  1.00  0.00  0.00  0.19  0.00
  WS02003060WS02003069    1.00   0.00  0.00  0.00  0.99  0.01  0.00  0.00  0.58  0.00
  WS02003066WSF200        1.00   0.02  0.00  0.00  0.00  0.98  0.00  0.00  0.92  0.00
  WS02003067WS02003066    1.00   0.01  0.01  0.00  0.98  0.00  0.00  0.00  0.00  0.00
  WS02003069WS02003072    1.00   0.00  0.00  0.00  1.00  0.00  0.00  0.00  0.63  0.00
  WS02003072WS02003073    1.00   0.00  0.00  0.00  0.00  0.00  0.00  1.00  0.00  0.00
  WS02004401WS02004402    1.00   0.00  0.00  0.00  1.00  0.00  0.00  0.00  0.00  0.00
  WS02004402WS02004403    1.00   0.00  0.00  0.00  1.00  0.00  0.00  0.00  0.00  0.00
  WS02004403WS02004404    1.00   0.00  0.00  0.00  1.00  0.00  0.00  0.00  0.00  0.00
  WS02004404WS02004405    1.00   0.00  0.00  0.00  1.00  0.00  0.00  0.00  0.01  0.00
  WS02004405WS02004406    1.00   0.00  0.00  0.00  1.00  0.00  0.00  0.00  0.00  0.00
  WS02004406WS02004407    1.00   0.00  0.00  0.00  1.00  0.00  0.00  0.00  0.00  0.00
  WS02004407WS02004409    1.00   0.00  0.00  0.00  1.00  0.00  0.00  0.00  0.99  0.00
  WS02004409WS02004410    1.00   0.00  0.00  0.00  1.00  0.00  0.00  0.00  0.00  0.00
  WS02004410WS02004411    1.00   0.00  0.00  0.00  1.00  0.00  0.00  0.00  0.00  0.00
  WS02004411WS02004412    1.00   0.00  0.00  0.00  1.00  0.00  0.00  0.00  0.00  0.00
  WS02004412WS02004413    1.00   0.00  0.00  0.00  0.99  0.00  0.00  0.00  0.00  0.00
  WS02004413WS02003067    1.00   0.00  0.01  0.00  0.00  0.00  0.99  0.00  0.00  0.00
  WS02006109WS02006110    1.00   0.00  0.00  0.00  1.00  0.00  0.00  0.00  0.00  0.00
  WS02006110WS02006113    1.00   0.00  0.00  0.00  1.00  0.00  0.00  0.00  0.00  0.00
  WS02006111WS02006112    1.00   0.00  0.00  0.00  1.00  0.00  0.00  0.00  1.00  0.00
  WS02006112WS02006115    1.00   0.00  0.00  0.00  1.00  0.00  0.00  0.00  0.00  0.00
  WS02006113WS02006111    1.00   0.00  0.00  0.00  0.00  1.00  0.00  0.00  0.20  0.00
  WS02006115WS02006116    1.00   0.00  0.00  0.00  1.00  0.00  0.00  0.00  0.00  0.00
  WS02006116WS02004401    1.00   0.00  0.00  0.00  1.00  0.00  0.00  0.00  0.00  0.00
  WS02006228WS02006109    1.00   0.00  0.00  0.00  1.00  0.00  0.00  0.00  0.00  0.00
  WS02006229WS02006228    1.00   0.00  0.00  0.00  1.00  0.00  0.00  0.00  0.00  0.00
  WS02006230WS02006229    1.00   0.00  0.00  0.00  1.00  0.00  0.00  0.00  0.00  0.00
  WS02006231WS02006230    1.00   0.00  0.00  0.00  0.24  0.00  0.76  0.00  0.00  0.00
  WS02006232WS02006231    1.00   0.00  0.00  0.00  1.00  0.00  0.00  0.00  0.00  0.00
  WS02006234WS02006232    1.00   0.00  0.00  0.00  1.00  0.00  0.00  0.00  0.00  0.00
  WS02006235WS02006234    1.00   0.00  0.00  0.00  0.98  0.00  0.02  0.00  0.00  0.00
  WS02006238WS02006235    1.00   0.00  0.00  0.00  1.00  0.00  0.00  0.00  0.00  0.00
  WS02006239WS02006238    1.00   0.00  0.00  0.00  1.00  0.00  0.00  0.00  0.00  0.00
  WS02006240WS02006239    1.00   0.01  0.00  0.00  0.94  0.00  0.00  0.04  0.00  0.00
  WS02006242WS02006240    1.00   0.01  0.00  0.00  0.98  0.00  0.01  0.00  0.00  0.00
  WS02006243WS02006242    1.00   0.01  0.00  0.00  0.98  0.00  0.00  0.01  0.19  0.00
  WS02006245WS02006243    1.00   0.01  0.00  0.00  0.97  0.00  0.00  0.02  0.00  0.00
  WS02006247WS02006245    1.00   0.00  0.00  0.00  0.99  0.00  0.00  0.01  0.00  0.00
  WS02006248WS02006247    1.00   0.00  0.00  0.00  0.99  0.00  0.00  0.01  0.19  0.00
  WS02006249WS02006248    1.00   0.00  0.00  0.00  0.95  0.00  0.05  0.00  0.00  0.00
  WS02006251WS02006249    1.00   0.00  0.00  0.00  1.00  0.00  0.00  0.00  0.16  0.00
  WS02006252WS02006251    1.00   0.00  0.04  0.00  0.05  0.00  0.91  0.00  0.00  0.00
  WS02006256WS02006235    1.00   0.00  0.00  0.00  1.00  0.00  0.00  0.00  0.00  0.00
  WSF200WS02003060        1.00   0.00  0.02  0.00  0.03  0.95  0.00  0.00  0.49  0.00
  YS02001580YS02001583    1.00   0.24  0.53  0.00  0.24  0.00  0.00  0.00  0.61  0.00
  YS02001583YS02001586    1.00   0.34  0.39  0.00  0.27  0.00  0.00  0.00  0.61  0.00
  YS02001586YS02001590    1.00   0.19  0.00  0.00  0.43  0.06  0.00  0.32  0.26  0.00
  YS02001590YS02001593    1.00   0.19  0.00  0.00  0.21  0.00  0.60  0.00  0.00  0.00
  YS02001593YS02001596    1.00   0.19  0.00  0.00  0.21  0.00  0.00  0.59  0.01  0.00
  YS02001596YS02001600    1.00   0.20  0.00  0.00  0.24  0.00  0.00  0.56  0.03  0.00
  YS02001600YS02001601    1.00   0.19  0.01  0.00  0.80  0.00  0.00  0.00  0.54  0.00
  YS02001601YS02001602    1.00   0.19  0.00  0.00  0.81  0.00  0.00  0.00  0.00  0.00
  YS02001602YS02001605    1.00   0.19  0.00  0.00  0.81  0.00  0.00  0.00  0.00  0.00
  YS02001605YS02001607    1.00   0.20  0.00  0.00  0.80  0.00  0.00  0.00  0.00  0.00
  YS02001607YS02001610    1.00   0.20  0.00  0.00  0.80  0.00  0.00  0.00  0.00  0.00
  YS02001610YS02001613    1.00   0.19  0.00  0.00  0.81  0.00  0.00  0.00  0.00  0.00
  YS02001613YS02001616    1.00   0.19  0.00  0.00  0.81  0.00  0.00  0.00  0.00  0.00
  YS02001616YS02001619    1.00   0.19  0.00  0.00  0.81  0.00  0.00  0.00  0.00  0.00
  YS02001619YS02001622    1.00   0.19  0.00  0.00  0.80  0.01  0.00  0.00  0.27  0.00
  YS02001622YS02001625    1.00   0.19  0.00  0.00  0.80  0.01  0.00  0.00  0.01  0.00
  YS02001625YS02001629    1.00   0.19  0.03  0.00  0.22  0.00  0.56  0.00  0.00  0.00
  YS02001629YS02163301    1.00   0.20  0.01  0.00  0.80  0.00  0.00  0.00  0.00  0.00
  YS02001633YS02163601    1.00   0.19  0.00  0.00  0.81  0.00  0.00  0.00  0.00  0.00
  YS02001641YS02001644    1.00   0.19  0.00  0.00  0.81  0.00  0.00  0.00  0.00  0.00
  YS02001644YS02001647    1.00   0.19  0.02  0.00  0.79  0.00  0.00  0.00  0.00  0.00
  YS02001647YS02001649    1.00   0.20  0.01  0.00  0.50  0.29  0.00  0.00  0.54  0.00
  YS02001649YS02001757    1.00   0.00  0.20  0.00  0.59  0.21  0.00  0.00  0.13  0.00
  YS02001652YS02001649    1.00   0.20  0.00  0.00  0.78  0.02  0.00  0.00  0.54  0.00
  YS02001655YS02001652    1.00   0.20  0.00  0.00  0.23  0.00  0.00  0.57  0.03  0.00
  YS02001658YS02001655    1.00   0.20  0.00  0.00  0.72  0.08  0.00  0.00  0.60  0.00
  YS02001661YS02001658    1.00   0.20  0.00  0.00  0.53  0.28  0.00  0.00  0.63  0.00
  YS02001664YS02001661    1.00   0.19  0.00  0.00  0.71  0.10  0.00  0.00  0.87  0.00
  YS02001745YS02001748    1.00   0.19  0.00  0.00  0.17  0.00  0.00  0.64  0.07  0.00
  YS02001748YS02001751    1.00   0.19  0.00  0.00  0.73  0.08  0.00  0.00  0.59  0.00
  YS02001751YS02001754    1.00   0.19  0.00  0.00  0.22  0.00  0.00  0.58  0.03  0.00
  YS02001754YS02001757    1.00   0.00  0.19  0.00  0.79  0.01  0.00  0.00  0.55  0.00
  YS02001757CaochengTiaoxuchi    1.00   0.00  0.00  0.00  0.97  0.03  0.00  0.00  0.52  0.00
  YS02001759YS02001757    1.00   0.00  0.19  0.00  0.79  0.02  0.00  0.00  0.41  0.00
  YS02001762YS02001759    1.00   0.19  0.01  0.00  0.80  0.00  0.00  0.00  0.02  0.00
  YS02001765YS02001762    1.00   0.19  0.00  0.00  0.81  0.00  0.00  0.00  0.48  0.00
  YS02001767YS02001765    1.00   0.19  0.00  0.00  0.81  0.00  0.00  0.00  0.01  0.00
  YS02001770YS02001767    1.00   0.19  0.00  0.00  0.81  0.00  0.00  0.00  0.00  0.00
  YS02001774YS02001770    1.00   0.19  0.00  0.00  0.69  0.01  0.11  0.00  0.00  0.00
  YS02001779YS02001774    1.00   0.19  0.50  0.00  0.31  0.00  0.00  0.00  0.54  0.00
  YS02001783YS02001784    1.00   0.22  0.00  0.00  0.78  0.00  0.00  0.00  0.54  0.00
  YS02001784YS02001785    1.00   0.22  0.00  0.00  0.78  0.00  0.00  0.00  0.35  0.00
  YS02001786YS02001788    1.00   0.22  0.00  0.00  0.62  0.16  0.00  0.00  0.00  0.00
  YS02001788YS02001790    1.00   0.22  0.00  0.00  0.16  0.62  0.00  0.00  0.60  0.00
  YS02001790YS02001791    1.00   0.22  0.00  0.00  0.00  0.77  0.00  0.00  0.15  0.00
  YS02001791YS02001793    1.00   0.22  0.00  0.00  0.00  0.77  0.00  0.00  0.01  0.00
  YS02001793JiankangQianchi    1.00   0.00  0.23  0.00  0.74  0.03  0.00  0.00  0.84  0.00
  YS02001882YS02001884    1.00   0.20  0.00  0.00  0.79  0.00  0.00  0.00  0.00  0.00
  YS02001884YS02001887    1.00   0.20  0.00  0.00  0.80  0.00  0.00  0.00  0.00  0.00
  YS02001887YS02001890    1.00   0.19  0.00  0.00  0.80  0.00  0.01  0.00  0.00  0.00
  YS02001890YS02001895    1.00   0.19  0.01  0.00  0.79  0.00  0.00  0.00  0.00  0.00
  YS02001895YS02001898    1.00   0.21  0.00  0.00  0.78  0.00  0.01  0.00  0.00  0.00
  YS02001898YS02001901    1.00   0.21  0.00  0.00  0.79  0.00  0.00  0.00  0.00  0.00
  YS02001901YS02001904    1.00   0.21  0.00  0.00  0.79  0.00  0.00  0.00  0.00  0.00
  YS02001904YS02001907    1.00   0.19  0.02  0.00  0.79  0.00  0.00  0.00  0.00  0.00
  YS02001907YS02006553    1.00   0.19  0.01  0.00  0.80  0.00  0.00  0.00  0.00  0.00
  YS02001910YS02001907    1.00   0.19  0.00  0.00  0.80  0.00  0.00  0.01  0.00  0.00
  YS02001915YS02001910    1.00   0.19  0.00  0.00  0.79  0.02  0.00  0.00  0.00  0.00
  YS02001918YS02001915    1.00   0.19  0.02  0.00  0.79  0.00  0.00  0.00  0.62  0.00
  YS02001920YS02001918    1.00   0.20  0.01  0.00  0.79  0.00  0.00  0.00  0.00  0.00
  YS02001923YS02001920    1.00   0.20  0.00  0.00  0.79  0.01  0.00  0.00  0.71  0.00
  YS02001926YS02001923    1.00   0.19  0.01  0.00  0.07  0.00  0.73  0.00  0.00  0.00
  YS02001929YS02001926    1.00   0.19  0.00  0.00  0.80  0.01  0.00  0.00  0.80  0.00
  YS02006553YS02006556    1.00   0.20  0.00  0.00  0.80  0.00  0.00  0.00  0.00  0.00
  YS02006556YS02006558    1.00   0.19  0.00  0.00  0.81  0.00  0.00  0.00  0.00  0.00
  YS02006558YS02006561    1.00   0.21  0.00  0.00  0.05  0.73  0.00  0.00  0.12  0.00
  YS02006561YS02001783    1.00   0.21  0.00  0.00  0.16  0.62  0.00  0.00  0.61  0.00
  YS02163301YS02001633    1.00   0.19  0.01  0.00  0.80  0.00  0.00  0.00  0.00  0.00
  YS02163601YS02164001    1.00   0.19  0.01  0.00  0.80  0.00  0.00  0.00  0.00  0.00
  YS02164001YS02001641    1.00   0.19  0.01  0.00  0.80  0.00  0.00  0.00  0.00  0.00
  
  
  *************************
  Conduit Surcharge Summary
  *************************
  
  ----------------------------------------------------------------------------
                                                           Hours        Hours 
                         --------- Hours Full --------   Above Full   Capacity
  Conduit                Both Ends  Upstream  Dnstream   Normal Flow   Limited
  ----------------------------------------------------------------------------
  WS02003072WS02003073        0.01      0.01      0.01      0.89         0.01
  WS02004401WS02004402        0.01      0.01      0.01      0.01         0.01
  WS02004402WS02004403        0.01      0.01      0.01      0.02         0.01
  WS02004404WS02004405        0.01      0.01      0.01      6.40         0.01
  WS02004405WS02004406        0.01      0.01      0.01      0.37         0.01
  WS02006109WS02006110        0.39      0.39      2.79      0.51         0.01
  WS02006110WS02006113        0.01      0.01      2.75      0.01         0.01
  WS02006111WS02006112        0.01      0.01      2.97      0.01         0.01
  WS02006112WS02006115        0.01      0.01      0.46      0.01         0.01
  WS02006113WS02006111        0.01      0.01      0.01      0.01         0.01
  WS02006115WS02006116        0.01      0.01      0.01      0.01         0.01
  WS02006116WS02004401        0.01      0.01      0.01      0.02         0.01
  WS02006228WS02006109        2.71      2.79      2.72      3.05         2.71
  WS02006229WS02006228        2.70      2.73      2.70      2.93         2.69
  WS02006230WS02006229        2.84      2.91      2.86      6.47         2.84
  WS02006231WS02006230        0.41      0.41      0.54      6.34         0.01
  WS02006232WS02006231        0.51      0.51      2.78      0.55         0.01
  WS02006234WS02006232        2.64      2.64      2.78      0.55         0.54
  WS02006235WS02006234        0.69      0.69      2.69      6.29         0.02
  WS02006238WS02006235        2.71      2.71      2.79      0.01         0.01
  WS02006239WS02006238        2.74      2.76      2.74      2.79         2.59
  WS02006240WS02006239        2.71      2.74      2.71      2.78         2.50
  WS02006242WS02006240        2.73      2.73      2.78      2.83         0.01
  WS02006243WS02006242        2.75      2.75      2.78      0.01         0.03
  WS02006245WS02006243        2.74      2.74      2.74      2.29         2.37
  WS02006247WS02006245        2.74      2.75      2.74      6.29         2.72
  WS02006248WS02006247        2.74      2.74      2.75      0.01         0.04
  WS02006249WS02006248        2.73      2.73      2.74      6.28         0.01
  WS02006251WS02006249        2.74      2.74      2.74      2.77         2.69
  WS02006252WS02006251        2.78      2.78      2.81      2.78         0.01
  WS02006256WS02006235        6.30      6.32      7.83      0.65         0.01
  YS02001580YS02001583        1.16      1.16      1.68      0.01         0.01
  YS02001583YS02001586        1.19      1.19      1.80      0.01         0.01
  YS02001586YS02001590        1.81      1.81      1.86      0.01         0.01
  YS02001590YS02001593        1.86      1.86      1.88      1.85         0.01
  YS02001593YS02001596        1.88      1.88      1.95      0.01         0.01
  YS02001596YS02001600        1.97      1.97      2.02      0.01         0.01
  YS02001600YS02001601        2.05      2.05      2.20      0.01         0.01
  YS02001601YS02001602        2.14      2.14      2.22      2.02         0.01
  YS02001602YS02001605        2.12      2.12      2.14      2.72         0.01
  YS02001605YS02001607        2.10      2.12      2.10      2.14         2.07
  YS02001607YS02001610        1.84      1.84      1.87      0.01         0.01
  YS02001610YS02001613        1.84      1.84      1.87      0.01         0.01
  YS02001613YS02001616        1.81      1.81      1.84      0.01         0.01
  YS02001616YS02001619        1.81      1.81      1.81      0.01         0.01
  YS02001619YS02001622        1.80      1.81      1.80      1.82         1.47
  YS02001622YS02001625        1.80      1.80      1.93      0.01         0.01
  YS02001625YS02001629        1.76      1.76      1.93      0.01         0.01
  YS02001629YS02163301        1.93      1.93      1.95      0.15         0.39
  YS02001633YS02163601        1.96      1.96      1.99      1.28         1.21
  YS02001641YS02001644        1.92      1.94      1.92      2.24         1.90
  YS02001644YS02001647        1.69      1.69      1.92      0.01         0.01
  YS02001647YS02001649        1.69      1.69      1.80      0.01         0.01
  YS02001649YS02001757        1.80      1.80      1.86      0.30         0.40
  YS02001652YS02001649        1.66      1.66      1.80      0.01         0.01
  YS02001655YS02001652        0.75      0.75      1.64      0.01         0.01
  YS02001658YS02001655        0.02      0.02      0.75      0.01         0.01
  YS02001661YS02001658        0.01      0.01      0.02      0.01         0.01
  YS02001748YS02001751        0.01      0.01      0.03      0.01         0.01
  YS02001751YS02001754        0.03      0.03      1.57      0.01         0.01
  YS02001754YS02001757        1.61      1.61      1.86      0.01         0.01
  YS02001757CaochengTiaoxuchi        1.86      1.86      2.76      0.46         0.35
  YS02001759YS02001757        1.78      1.78      1.86      0.01         0.01
  YS02001762YS02001759        1.75      1.75      1.78      0.01         0.01
  YS02001765YS02001762        1.70      1.70      1.75      0.01         0.01
  YS02001767YS02001765        1.68      1.68      1.70      0.01         0.01
  YS02001770YS02001767        1.68      1.69      1.68      1.15         0.91
  YS02001774YS02001770        1.67      1.67      1.74      0.01         0.01
  YS02001779YS02001774        1.55      1.55      1.74      0.01         0.01
  YS02001783YS02001784        0.93      1.03      0.93      1.35         0.93
  YS02001784YS02001785        0.48      0.93      0.48      1.91         0.48
  YS02001786YS02001788        0.01      0.48      0.01      1.84         0.01
  YS02001790YS02001791        0.01      0.01      0.01      0.81         0.01
  YS02001793JiankangQianchi        0.01      0.01      6.82      0.01         0.01
  YS02001882YS02001884        0.66      0.66      0.71      0.01         0.01
  YS02001884YS02001887        0.87      0.87      0.99      0.01         0.01
  YS02001887YS02001890        1.04      1.04      1.06      0.01         0.01
  YS02001890YS02001895        0.62      0.62      1.10      0.01         0.01
  YS02001895YS02001898        0.61      0.61      0.62      0.01         0.01
  YS02001898YS02001901        0.63      0.63      0.87      0.01         0.01
  YS02001901YS02001904        0.79      0.79      0.87      0.01         0.01
  YS02001904YS02001907        0.79      0.79      1.83      0.01         0.01
  YS02001907YS02006553        1.91      1.91      1.94      0.01         0.01
  YS02001910YS02001907        1.10      1.10      1.81      0.01         0.01
  YS02001915YS02001910        0.67      0.67      1.10      0.01         0.01
  YS02001918YS02001915        0.45      0.45      0.67      0.01         0.01
  YS02001920YS02001918        0.45      0.45      0.48      0.01         0.01
  YS02001923YS02001920        0.34      0.34      0.48      0.01         0.01
  YS02006553YS02006556        1.29      1.29      1.82      0.01         0.01
  YS02006556YS02006558        1.59      1.59      1.84      0.01         0.01
  YS02006558YS02006561        0.52      1.26      0.52      1.88         0.52
  YS02006561YS02001783        0.38      0.38      1.03      0.01         0.01
  YS02163301YS02001633        1.95      1.95      1.97      0.01         0.01
  YS02163601YS02164001        1.94      1.94      1.99      0.17         0.01
  YS02164001YS02001641        1.93      1.94      1.94      1.89         1.79
  
  
  ***************
  Pumping Summary
  ***************
  
  ---------------------------------------------------------------------------------------------------------
                                                  Min       Avg       Max     Total     Power    % Time Off
                        Percent   Number of      Flow      Flow      Flow    Volume     Usage    Pump Curve
  Pump                 Utilized   Start-Ups       LPS       LPS       LPS  10^6 ltr     Kw-hr    Low   High
  ---------------------------------------------------------------------------------------------------------
  CC-R1                   27.59           1      0.00    683.00    683.00     5.427    105.52    0.0    0.0
  CC-R2                   24.15           1      0.00    683.00    683.00     4.751     93.07    0.0    0.0
  CC-S1                   79.44          20      0.00    200.00    200.00     4.576     26.49    0.0    0.0
  CC-S2                   34.78           1      0.00    200.00    200.00     2.003      9.91    0.0    0.0
  JK-R1                   10.99          55      0.00   1000.00   1000.00     3.164     28.16    0.0    0.0
  JK-R2                    9.52          55      0.00   1000.00   1000.00     2.741     23.12    0.0    0.0
  JK-S                     8.11           8      0.00    300.00    300.00     0.701     11.11    0.0    0.0
  

  Analysis begun on:  Fri Sep  8 22:11:30 2023
  Analysis ended on:  Fri Sep  8 22:11:45 2023
  Total elapsed time: 00:00:15