
  OWA STORM WATER MANAGEMENT MODEL - VERSION v5.1.14 (OWA 2022-07-31)
  --------------------------------------------------------------

  WARNING 04: minimum elevation drop used for Conduit WS02004404WS02004405
  WARNING 03: negative offset ignored for Link YS02001904YS02001907
  
  *********************************************************
  NOTE: The summary statistics displayed in this report are
  based on results found at every computational time step,  
  not just on results from each reporting time step.
  *********************************************************
  
  ****************
  Analysis Options
  ****************
  Flow Units ............... LPS
  Process Models:
    Rainfall/Runoff ........ YES
    RDII ................... NO
    Snowmelt ............... NO
    Groundwater ............ NO
    Flow Routing ........... YES
    Ponding Allowed ........ NO
    Water Quality .......... NO
  Infiltration Method ...... HORTON
  Flow Routing Method ...... DYNWAVE
  Surcharge Method ......... EXTRAN
  Starting Date ............ 08/28/2015 08:00:00
  Ending Date .............. 08/28/2015 16:00:00
  Antecedent Dry Days ...... 8.0
  Report Time Step ......... 00:01:00
  Wet Time Step ............ 00:01:00
  Dry Time Step ............ 00:01:00
  Routing Time Step ........ 30.00 sec
  Variable Time Step ....... YES
  Maximum Trials ........... 8
  Number of Threads ........ 4
  Head Tolerance ........... 0.001500 m
  
  
  **************************        Volume         Depth
  Runoff Quantity Continuity     hectare-m            mm
  **************************     ---------       -------
  Total Precipitation ......         2.819        46.533
  Evaporation Loss .........         0.000         0.000
  Infiltration Loss ........         0.235         3.883
  Surface Runoff ...........         2.523        41.649
  Final Storage ............         0.061         1.006
  Continuity Error (%) .....        -0.013
  
  
  **************************        Volume        Volume
  Flow Routing Continuity        hectare-m      10^6 ltr
  **************************     ---------     ---------
  Dry Weather Inflow .......         0.630         6.296
  Wet Weather Inflow .......         2.522        25.222
  Groundwater Inflow .......         0.000         0.000
  RDII Inflow ..............         0.000         0.000
  External Inflow ..........         0.105         1.045
  External Outflow .........         2.624        26.237
  Flooding Loss ............         0.560         5.601
  Evaporation Loss .........         0.000         0.000
  Exfiltration Loss ........         0.000         0.000
  Initial Stored Volume ....         0.303         3.031
  Final Stored Volume ......         0.382         3.817
  Continuity Error (%) .....        -0.174
  
  
  *************************
  Highest Continuity Errors
  *************************
  Node HS02004842 (6.71%)
  Node YS02001884 (4.95%)
  Node YS02001583 (-3.35%)
  Node YS02001774 (1.41%)
  Node HS02004817 (1.34%)
  
  
  ***************************
  Time-Step Critical Elements
  ***************************
  Link WS02006280WS02006229 (61.91%)
  Link WS02006238WS02006235 (9.88%)
  Link WS02004404WS02004405 (4.57%)
  Link YS02006556YS02006558 (4.09%)
  Link WS02006252WS02006251 (2.47%)
  
  
  ********************************
  Highest Flow Instability Indexes
  ********************************
  Link WS02006238WS02006235 (25)
  Link WS02006113WS02006111 (24)
  Link YS02006556YS02006558 (21)
  Link WS02006252WS02006251 (21)
  Link WS02006229WS02006228 (20)
  
  
  *************************
  Routing Time Step Summary
  *************************
  Minimum Time Step           :     0.01 sec
  Average Time Step           :     2.65 sec
  Maximum Time Step           :     6.46 sec
  Percent in Steady State     :     0.00
  Average Iterations per Step :     3.50
  Percent Not Converging      :    16.49
  
  
  ***************************
  Subcatchment Runoff Summary
  ***************************
  
  ------------------------------------------------------------------------------------------------------------------------------
                            Total      Total      Total      Total     Imperv       Perv      Total       Total     Peak  Runoff
                           Precip      Runon       Evap      Infil     Runoff     Runoff     Runoff      Runoff   Runoff   Coeff
  Subcatchment                 mm         mm         mm         mm         mm         mm         mm    10^6 ltr      LPS
  ------------------------------------------------------------------------------------------------------------------------------
  sub0                      30.07       0.00       0.00       1.02      26.70       1.08      27.79        0.02     5.56   0.924
  sub1                      30.07       0.00       0.00       1.70      25.51       1.61      27.11        0.18    41.93   0.902
  sub10                     30.07       0.00       0.00       1.21      26.37       1.20      27.57        0.30    71.67   0.917
  sub11                     30.07       0.00       0.00       1.20      26.39       1.21      27.60        0.32    77.23   0.918
  sub12                     30.07       0.00       0.00       1.95      24.98       1.96      26.94        0.24    57.86   0.896
  sub14                     30.07       0.00       0.00       1.36      26.10       1.35      27.44        0.26    62.29   0.913
  sub15                     30.07       0.00       0.00       5.08      20.07       3.94      24.01        0.41    90.55   0.798
  sub16                     30.07       0.00       0.00       5.35      19.23       4.58      23.81        0.25    56.60   0.792
  sub17                     30.07       0.00       0.00       5.21      19.52       4.42      23.93        0.21    46.52   0.796
  sub2                      30.07       0.00       0.00       6.94      18.04       4.18      22.22        0.21    41.55   0.739
  sub22                     30.07       0.00       0.00       7.58      16.35       5.35      21.70        1.37   284.10   0.722
  sub23                     30.07       0.00       0.00       6.28      18.08       4.85      22.92        1.09   236.97   0.762
  sub3                      30.07       0.00       0.00       7.34      18.00       3.79      21.79        0.49    93.45   0.725
  sub4                      30.07       0.00       0.00       1.84      25.35       1.47      26.82        0.56   110.58   0.892
  sub5                      30.07       0.00       0.00       1.06      26.65       1.05      27.70        0.31    73.42   0.921
  sub60                     60.14       0.00       0.00       1.88      51.71       5.33      57.05        0.75   180.14   0.949
  sub61                     60.14       0.00       0.00       2.73      48.78       7.50      56.28        1.03   248.85   0.936
  sub62                     60.14       0.00       0.00       1.26      54.03       3.56      57.59        1.58   374.12   0.958
  sub63                     60.14       0.00       0.00       4.98      41.72      12.46      54.18        1.23   289.31   0.901
  sub64                     60.14       0.00       0.00       2.53      49.90       6.50      56.40        1.35   317.06   0.938
  sub65                     60.14       0.00       0.00       2.19      51.06       5.63      56.69        1.56   362.44   0.943
  sub66                     60.14       0.00       0.00       6.01      41.62      11.43      53.05        2.47   513.29   0.882
  sub67                     60.14       0.00       0.00       1.21      54.08       3.60      57.68        1.07   257.67   0.959
  sub68                     60.14       0.00       0.00       2.26      50.53       6.16      56.69        1.56   373.09   0.943
  sub69                     60.14       0.00       0.00       2.01      51.00       7.01      58.01        2.15   488.39   0.965
  sub7                      30.07       0.00       0.00       1.35      26.11       1.36      27.47        0.09    22.46   0.914
  sub70                     60.14       0.00       0.00       6.41      39.52      14.03      53.56        1.55   301.65   0.891
  sub71                     60.14       0.00       0.00       1.29      53.99       3.53      57.52        1.50   349.87   0.956
  sub72                     60.14       0.00       0.00       1.14      54.52       3.07      57.59        0.79   178.70   0.958
  sub8                      30.07       0.00       0.00       1.36      26.10       1.35      27.45        0.18    42.05   0.913
  sub9                      30.07       0.00       0.00       1.36      26.10       1.35      27.45        0.13    31.56   0.913
  
  
  ******************
  Node Depth Summary
  ******************
  
  ---------------------------------------------------------------------------------
                                 Average  Maximum  Maximum  Time of Max    Reported
                                   Depth    Depth      HGL   Occurrence   Max Depth
  Node                 Type       Meters   Meters   Meters  days hr:min      Meters
  ---------------------------------------------------------------------------------
  HS02004478           JUNCTION     0.15     0.41     9.63     0  01:38        0.41
  HS02004479           JUNCTION     0.23     0.55     9.75     0  01:37        0.55
  HS02004480           JUNCTION     0.20     0.51     9.75     0  01:37        0.51
  HS02004770           JUNCTION     0.21     0.46    10.29     0  01:37        0.46
  HS02004777           JUNCTION     0.24     0.48    10.28     0  01:37        0.48
  HS02004785           JUNCTION     0.12     0.32    10.22     0  01:37        0.32
  HS02004788           JUNCTION     0.08     0.22    10.12     0  01:37        0.22
  HS02004792           JUNCTION     0.11     0.32     9.84     0  01:37        0.32
  HS02004799           JUNCTION     0.26     0.61     9.82     0  01:37        0.61
  HS02004802           JUNCTION     0.25     0.53     9.66     0  01:38        0.53
  HS02004807           JUNCTION     0.22     0.50     9.67     0  01:38        0.50
  HS02004817           JUNCTION     0.53     0.83     9.68     0  01:38        0.83
  HS02004824           JUNCTION     0.08     0.27     9.67     0  01:38        0.27
  HS02004830           JUNCTION     0.08     0.21     9.68     0  01:38        0.21
  HS02004837           JUNCTION     0.05     0.12     9.70     0  01:38        0.12
  HS02004842           JUNCTION     0.35     0.43     9.70     0  01:38        0.43
  HS02004848           JUNCTION     0.04     0.10     9.70     0  01:38        0.10
  HS02004852           JUNCTION     0.04     0.11     9.63     0  01:38        0.11
  HS02004856           JUNCTION     0.10     0.19     9.61     0  01:37        0.19
  HS02004862           JUNCTION     0.06     0.15     9.54     0  01:38        0.15
  HS02004870           JUNCTION     0.05     0.13     9.42     0  01:37        0.13
  HS02004876           JUNCTION     0.09     0.21     9.24     0  01:37        0.21
  HS02004881           JUNCTION     0.03     0.13     9.16     0  01:23        0.08
  HS02004901           JUNCTION     0.22     0.47    10.29     0  01:37        0.47
  WS02001211           JUNCTION     0.64     0.75     5.58     0  01:42        0.75
  WS02001212           JUNCTION     0.38     0.50     5.57     0  01:42        0.50
  WS02001213           JUNCTION     0.60     0.80     5.56     0  01:31        0.80
  WS02003059           JUNCTION     0.67     0.86     5.55     0  01:39        0.86
  WS02003060           JUNCTION     0.39     0.61     5.54     0  01:41        0.61
  WS02003066           JUNCTION     0.23     0.41     5.96     0  01:40        0.41
  WS02003067           JUNCTION     0.56     0.84     6.16     0  01:38        0.84
  WS02003069           JUNCTION     0.44     0.69     5.28     0  01:42        0.69
  WS02003072           JUNCTION     0.50     0.74     5.11     0  01:42        0.74
  WS02003073           JUNCTION     0.30     0.46     4.53     0  01:43        0.46
  WS02004138           JUNCTION     0.13     0.14     7.39     0  00:29        0.14
  WS02004139           JUNCTION     0.57     0.68     5.59     0  01:43        0.68
  WS02004401           JUNCTION     0.77     2.18     8.18     0  01:24        1.37
  WS02004402           JUNCTION     0.78     2.00     7.96     0  01:24        1.34
  WS02004403           JUNCTION     0.79     1.89     7.82     0  01:24        1.31
  WS02004404           JUNCTION     0.85     1.83     7.68     0  01:24        1.35
  WS02004405           JUNCTION     0.84     1.74     7.59     0  01:24        1.31
  WS02004406           JUNCTION     0.83     1.54     7.37     0  01:24        1.24
  WS02004407           JUNCTION     0.23     0.50     6.81     0  01:39        0.50
  WS02004409           JUNCTION     0.54     1.09     6.86     0  01:39        1.09
  WS02004410           JUNCTION     0.54     1.05     6.77     0  01:39        1.05
  WS02004411           JUNCTION     0.55     1.01     6.69     0  01:39        1.01
  WS02004412           JUNCTION     0.56     0.96     6.60     0  01:39        0.96
  WS02004413           JUNCTION     0.70     1.06     6.53     0  01:39        1.06
  WS02006109           JUNCTION     0.96     2.48     9.10     0  01:24        1.99
  WS02006110           JUNCTION     0.88     2.76     9.34     0  01:24        1.74
  WS02006111           JUNCTION     0.41     2.68     9.39     0  01:24        1.10
  WS02006112           JUNCTION     0.98     2.68     8.56     0  01:24        1.74
  WS02006113           JUNCTION     0.47     2.53     9.42     0  01:24        1.23
  WS02006115           JUNCTION     0.69     2.42     8.56     0  01:24        1.38
  WS02006116           JUNCTION     0.76     2.27     8.31     0  01:24        1.42
  WS02006228           JUNCTION     1.02     2.23     8.88     0  01:24        2.21
  WS02006229           JUNCTION     1.03     2.33     9.03     0  01:24        2.29
  WS02006230           JUNCTION     1.00     2.24     8.99     0  01:39        2.24
  WS02006231           JUNCTION     0.73     1.85     8.98     0  01:39        1.84
  WS02006232           JUNCTION     0.83     1.93     8.97     0  01:39        1.93
  WS02006234           JUNCTION     0.73     1.79     8.95     0  01:38        1.79
  WS02006235           JUNCTION     0.75     1.79     8.95     0  01:38        1.78
  WS02006238           JUNCTION     0.77     1.79     8.94     0  01:38        1.79
  WS02006239           JUNCTION     0.72     2.03     9.24     0  01:21        1.69
  WS02006240           JUNCTION     0.68     2.10     9.39     0  01:21        1.57
  WS02006242           JUNCTION     0.71     1.55     8.82     0  01:21        1.55
  WS02006243           JUNCTION     0.61     1.48     8.90     0  01:22        1.48
  WS02006245           JUNCTION     0.59     1.56     9.04     0  01:21        1.51
  WS02006247           JUNCTION     0.59     1.47     8.97     0  01:22        1.43
  WS02006248           JUNCTION     0.54     1.10     8.69     0  01:22        1.10
  WS02006249           JUNCTION     0.55     1.09     8.69     0  01:22        1.09
  WS02006251           JUNCTION     0.58     2.21     9.88     0  01:23        1.28
  WS02006252           JUNCTION     0.37     1.50     9.74     0  00:00        0.94
  WS02006253           JUNCTION     0.62     3.52    11.16     0  01:22        1.33
  WS02006256           JUNCTION     1.30     2.35     9.28     0  00:00        2.35
  WS02006280           JUNCTION     0.18     0.66     8.93     0  01:38        0.65
  WS02006284           JUNCTION     0.47     0.80     9.19     0  01:38        0.79
  WS02006287           JUNCTION     0.21     0.52     9.48     0  01:38        0.52
  WSF200               JUNCTION     0.23     0.45     5.69     0  01:40        0.45
  YS02001580           JUNCTION     0.15     1.05     9.59     0  01:20        0.73
  YS02001583           JUNCTION     0.19     1.14     9.64     0  01:20        0.77
  YS02001586           JUNCTION     0.31     1.13     9.30     0  01:20        1.10
  YS02001590           JUNCTION     0.44     1.38     9.24     0  01:20        1.34
  YS02001593           JUNCTION     0.38     1.30     9.17     0  01:20        1.26
  YS02001596           JUNCTION     0.53     1.67     9.09     0  01:20        1.63
  YS02001600           JUNCTION     0.64     1.87     9.00     0  01:29        1.87
  YS02001601           JUNCTION     0.84     2.06     8.90     0  01:19        2.06
  YS02001602           JUNCTION     0.73     1.87     8.77     0  01:20        1.87
  YS02001605           JUNCTION     0.67     1.78     8.68     0  01:59        1.78
  YS02001607           JUNCTION     0.62     1.68     8.53     0  01:57        1.68
  YS02001610           JUNCTION     0.66     1.68     8.48     0  01:30        1.68
  YS02001613           JUNCTION     0.62     1.70     8.54     0  01:59        1.70
  YS02001616           JUNCTION     0.55     1.61     8.52     0  01:59        1.61
  YS02001619           JUNCTION     0.52     1.61     8.54     0  01:59        1.61
  YS02001622           JUNCTION     0.51     1.62     8.52     0  01:59        1.62
  YS02001625           JUNCTION     0.77     1.78     8.38     0  01:30        1.78
  YS02001629           JUNCTION     0.67     1.85     8.40     0  01:36        1.85
  YS02001633           JUNCTION     0.73     2.02     8.47     0  01:57        1.99
  YS02001641           JUNCTION     0.68     2.10     8.54     0  01:57        2.10
  YS02001644           JUNCTION     0.67     1.92     8.35     0  01:57        1.92
  YS02001647           JUNCTION     0.43     1.71     8.32     0  01:57        1.62
  YS02001649           JUNCTION     0.49     1.88     8.27     0  01:36        1.88
  YS02001652           JUNCTION     0.36     2.11     8.70     0  01:36        2.11
  YS02001655           JUNCTION     0.26     2.20     9.05     0  01:57        2.14
  YS02001658           JUNCTION     0.17     0.81     7.95     0  01:39        0.78
  YS02001661           JUNCTION     0.16     0.52     7.92     0  01:40        0.51
  YS02001664           JUNCTION     0.07     0.20     8.13     0  01:33        0.20
  YS02001745           JUNCTION     0.07     0.23     7.75     0  01:55        0.22
  YS02001748           JUNCTION     0.16     0.67     7.75     0  01:37        0.66
  YS02001751           JUNCTION     0.22     0.86     7.74     0  01:54        0.85
  YS02001754           JUNCTION     0.31     1.24     7.85     0  01:33        1.13
  YS02001757           JUNCTION     0.51     1.66     7.92     0  01:57        1.60
  YS02001759           JUNCTION     0.44     1.59     7.96     0  01:57        1.59
  YS02001762           JUNCTION     0.43     1.71     8.11     0  01:57        1.71
  YS02001765           JUNCTION     0.40     1.58     8.03     0  01:57        1.58
  YS02001767           JUNCTION     0.39     1.61     8.10     0  01:35        1.61
  YS02001770           JUNCTION     0.40     1.64     8.14     0  01:35        1.64
  YS02001774           JUNCTION     0.47     1.72     8.14     0  01:35        1.62
  YS02001779           JUNCTION     0.29     1.48     8.16     0  01:35        1.21
  YS02001783           JUNCTION     0.35     1.19     7.33     0  01:29        1.19
  YS02001784           JUNCTION     0.35     1.08     7.15     0  01:37        1.07
  YS02001786           JUNCTION     0.30     0.85     6.88     0  01:37        0.84
  YS02001788           JUNCTION     0.22     0.61     6.59     0  01:37        0.60
  YS02001790           JUNCTION     0.26     0.71     6.35     0  01:37        0.70
  YS02001791           JUNCTION     0.16     0.43     5.90     0  01:37        0.42
  YS02001793           JUNCTION     0.08     0.24     5.07     0  01:30        0.22
  YS02001882           JUNCTION     0.40     1.52     8.24     0  01:37        1.50
  YS02001884           JUNCTION     0.49     1.62     8.24     0  01:37        1.62
  YS02001887           JUNCTION     0.57     1.70     8.23     0  01:37        1.68
  YS02001890           JUNCTION     0.60     1.73     8.24     0  01:36        1.72
  YS02001895           JUNCTION     0.37     1.48     8.23     0  01:37        1.47
  YS02001898           JUNCTION     0.38     1.49     8.22     0  01:37        1.48
  YS02001901           JUNCTION     0.50     1.62     8.23     0  01:37        1.60
  YS02001904           JUNCTION     0.48     1.59     8.22     0  01:37        1.58
  YS02001907           JUNCTION     0.79     1.93     8.22     0  01:37        1.92
  YS02001910           JUNCTION     0.59     1.73     8.24     0  01:37        1.72
  YS02001915           JUNCTION     0.40     1.54     8.25     0  01:37        1.52
  YS02001918           JUNCTION     0.21     1.19     8.25     0  01:37        1.18
  YS02001920           JUNCTION     0.29     1.25     8.26     0  01:37        1.24
  YS02001923           JUNCTION     0.15     0.99     8.25     0  01:37        0.99
  YS02001926           JUNCTION     0.18     0.81     8.25     0  01:37        0.81
  YS02001929           JUNCTION     0.09     0.56     8.25     0  01:37        0.56
  YS02006553           JUNCTION     0.79     1.92     8.20     0  01:37        1.90
  YS02006556           JUNCTION     0.76     1.86     8.17     0  01:37        1.84
  YS02006558           JUNCTION     0.81     1.88     8.15     0  01:37        1.88
  YS02006561           JUNCTION     0.20     0.83     7.49     0  01:37        0.82
  YS02163301           JUNCTION     0.68     1.93     8.44     0  01:57        1.92
  YS02163601           JUNCTION     0.75     2.08     8.48     0  01:57        2.08
  YS02164001           JUNCTION     0.68     2.10     8.56     0  01:57        2.10
  YSB1154              JUNCTION     0.37     0.70     9.76     0  01:37        0.70
  YSB1171              JUNCTION     0.51     0.85     9.76     0  01:36        0.85
  YSB1174              JUNCTION     0.32     0.65     9.76     0  01:37        0.65
  YSB6556              JUNCTION     0.27     0.59     9.76     0  01:37        0.59
  CC-1                 OUTFALL      0.00     0.00     0.00     0  00:00        0.00
  CC-2                 OUTFALL      0.00     0.00     0.00     0  00:00        0.00
  JK-1                 OUTFALL      0.00     0.00     0.00     0  00:00        0.00
  JK-2                 OUTFALL      0.00     0.00     0.00     0  00:00        0.00
  WSC                  OUTFALL      0.30     0.46     1.13     0  01:43        0.46
  CC-storage           STORAGE      0.94     1.63     7.13     0  02:10        1.63
  JK-storage           STORAGE      2.25     4.21     5.01     0  01:48        4.18
  XR-storage           STORAGE      7.83     9.26     7.26     0  08:00        9.26
  
  
  *******************
  Node Inflow Summary
  *******************
  
  -------------------------------------------------------------------------------------------------
                                  Maximum  Maximum                  Lateral       Total        Flow
                                  Lateral    Total  Time of Max      Inflow      Inflow     Balance
                                   Inflow   Inflow   Occurrence      Volume      Volume       Error
  Node                 Type           LPS      LPS  days hr:min    10^6 ltr    10^6 ltr     Percent
  -------------------------------------------------------------------------------------------------
  HS02004478           JUNCTION      0.00  1143.47     0  01:38           0        5.51       0.005
  HS02004479           JUNCTION      0.00   130.04     0  01:35           0       0.559       0.134
  HS02004480           JUNCTION      0.00   858.80     0  01:37           0        3.98       0.014
  HS02004770           JUNCTION    236.97   293.31     0  01:36        1.09        1.34       0.229
  HS02004777           JUNCTION      0.03   292.99     0  01:36    0.000864        1.34       0.392
  HS02004785           JUNCTION      0.15   293.04     0  01:37     0.00432        1.34       0.038
  HS02004788           JUNCTION     92.22   384.98     0  01:37       0.461         1.8       0.022
  HS02004792           JUNCTION    284.38   669.01     0  01:37        1.38        3.18       0.013
  HS02004799           JUNCTION     62.29   730.12     0  01:37       0.261        3.44       0.104
  HS02004802           JUNCTION      0.00   287.52     0  01:40           0        1.54       0.248
  HS02004807           JUNCTION     77.23   286.81     0  01:39       0.321        1.54       0.292
  HS02004817           JUNCTION      0.60   215.08     0  01:41      0.0173        1.24       1.361
  HS02004824           JUNCTION    110.63   212.92     0  01:40       0.561        1.22       0.045
  HS02004830           JUNCTION      0.15   102.00     0  01:38     0.00432       0.658       0.188
  HS02004837           JUNCTION     78.02   101.88     0  01:37       0.487       0.668       0.122
  HS02004842           JUNCTION      0.00    29.05     0  01:54           0       0.194       7.187
  HS02004848           JUNCTION     93.45    93.45     0  01:40        0.49        0.49       0.011
  HS02004852           JUNCTION      0.00    67.87     0  01:38           0        0.31       0.018
  HS02004856           JUNCTION     31.56    98.64     0  01:37       0.132       0.441       0.330
  HS02004862           JUNCTION     41.75   140.35     0  01:38       0.213       0.653       0.026
  HS02004870           JUNCTION     42.05   181.34     0  01:37       0.175       0.828       0.014
  HS02004876           JUNCTION     41.93   222.94     0  01:37        0.18        1.01       0.053
  HS02004881           JUNCTION     22.46   244.80     0  01:37      0.0925         1.1       0.049
  HS02004901           JUNCTION     56.60    56.60     0  01:35       0.249       0.249       0.711
  WS02001211           JUNCTION      7.35   225.13     0  01:30       0.212        5.44       0.612
  WS02001212           JUNCTION      0.00   210.96     0  01:33           0        5.41       0.290
  WS02001213           JUNCTION      0.00   208.71     0  03:23           0        5.39       0.331
  WS02003059           JUNCTION      0.00   214.08     0  03:21           0        5.39       0.595
  WS02003060           JUNCTION     16.53  1254.84     0  01:41       0.476        13.7       0.106
  WS02003066           JUNCTION      0.00  1042.47     0  01:39           0        7.88       0.018
  WS02003067           JUNCTION      0.00  1042.45     0  01:40           0        7.89       0.054
  WS02003069           JUNCTION      0.32  1254.86     0  01:41     0.00922        13.7       0.112
  WS02003072           JUNCTION      0.00  1254.63     0  01:42           0        13.7       0.152
  WS02003073           JUNCTION      1.82  1256.37     0  01:43      0.0524        13.7       0.157
  WS02004138           JUNCTION      0.00   380.00     0  00:00           0        5.25       0.052
  WS02004139           JUNCTION      0.32   190.95     0  00:29     0.00924        5.26       0.509
  WS02004401           JUNCTION      0.00  1043.21     0  01:38           0        7.99       0.127
  WS02004402           JUNCTION      0.00  1043.52     0  01:38           0        7.98       0.129
  WS02004403           JUNCTION      0.00  1043.60     0  01:38           0        7.97       0.127
  WS02004404           JUNCTION      0.16  1044.22     0  01:38     0.00467        7.96       0.105
  WS02004405           JUNCTION      0.04  1051.36     0  01:24      0.0011        7.96       0.155
  WS02004406           JUNCTION      0.00  1072.64     0  01:24           0        7.94       0.265
  WS02004407           JUNCTION      0.00  1083.37     0  01:24           0        7.92       0.018
  WS02004409           JUNCTION      0.00  1042.41     0  01:39           0        7.92       0.038
  WS02004410           JUNCTION      0.00  1042.39     0  01:39           0        7.92       0.059
  WS02004411           JUNCTION      0.00  1042.39     0  01:39           0        7.91       0.074
  WS02004412           JUNCTION      0.00  1042.45     0  01:39           0        7.91       0.098
  WS02004413           JUNCTION      0.00  1042.44     0  01:40           0         7.9       0.173
  WS02006109           JUNCTION      1.23  1023.71     0  01:23      0.0354        7.83       0.092
  WS02006110           JUNCTION      0.00  1023.81     0  01:23           0        7.82       0.094
  WS02006111           JUNCTION      0.00   997.22     0  01:38           0        7.81       0.008
  WS02006112           JUNCTION     46.52  1043.23     0  01:38       0.205        8.02       0.245
  WS02006113           JUNCTION      0.00  1023.84     0  01:23           0        7.81       0.023
  WS02006115           JUNCTION      0.00  1043.20     0  01:38           0           8       0.076
  WS02006116           JUNCTION      0.00  1043.44     0  01:38           0        7.99       0.028
  WS02006228           JUNCTION      0.00  1022.50     0  01:23           0         7.8       0.027
  WS02006229           JUNCTION      0.00  1144.67     0  01:39           0        8.04       0.099
  WS02006230           JUNCTION     10.28   487.64     0  03:15       0.296         2.8       0.325
  WS02006231           JUNCTION      0.00   477.34     0  03:15           0         2.5      -0.228
  WS02006232           JUNCTION      0.00   477.32     0  03:15           0        2.48       0.206
  WS02006234           JUNCTION      0.00   477.30     0  03:15           0        2.45      -0.183
  WS02006235           JUNCTION      0.00   477.29     0  03:15           0        2.86       0.156
  WS02006238           JUNCTION      0.00   416.71     0  03:25           0        1.98      -0.169
  WS02006239           JUNCTION      0.00   416.68     0  03:25           0        1.94      -0.173
  WS02006240           JUNCTION      0.00   416.64     0  03:25           0         1.9      -0.065
  WS02006242           JUNCTION      0.00   416.63     0  03:25           0        1.87       0.014
  WS02006243           JUNCTION      0.00   416.60     0  03:25           0        1.84      -0.030
  WS02006245           JUNCTION      0.00   416.58     0  03:25           0        1.84       0.409
  WS02006247           JUNCTION      0.00   437.27     0  01:22           0        1.83       0.018
  WS02006248           JUNCTION      0.00   487.13     0  01:22           0        2.01       0.009
  WS02006249           JUNCTION      0.00   663.81     0  01:25           0        4.27       0.089
  WS02006251           JUNCTION      0.08   656.64     0  01:25     0.00222        4.28      -0.020
  WS02006252           JUNCTION      0.00   400.00     0  00:00           0        3.14      -0.025
  WS02006253           JUNCTION      5.56   460.50     0  01:22      0.0225        1.14      -0.007
  WS02006256           JUNCTION      0.00   300.00     0  00:00           0        2.31      -0.114
  WS02006280           JUNCTION      0.00  1143.85     0  01:38           0         5.5       0.013
  WS02006284           JUNCTION      0.10  1143.60     0  01:38     0.00275         5.5       0.014
  WS02006287           JUNCTION      0.00  1143.48     0  01:38           0         5.5       0.020
  WSF200               JUNCTION      0.00  1042.52     0  01:40           0        7.88       0.008
  YS02001580           JUNCTION      0.00    66.05     0  01:20           0      0.0042       0.985
  YS02001583           JUNCTION      0.00   104.57     0  01:19           0      0.0159      -3.238
  YS02001586           JUNCTION    301.65   301.98     0  01:37        1.55        1.56       0.075
  YS02001590           JUNCTION      0.00   301.97     0  01:38           0        1.55      -0.035
  YS02001593           JUNCTION      0.00   301.92     0  01:37           0        1.55      -0.001
  YS02001596           JUNCTION      0.00   301.84     0  01:38           0        1.55      -0.017
  YS02001600           JUNCTION      0.00   302.01     0  01:37           0        1.55       0.000
  YS02001601           JUNCTION    488.39   786.48     0  01:35        2.15        3.69       0.012
  YS02001602           JUNCTION      0.00   515.65     0  01:19           0         2.9       0.011
  YS02001605           JUNCTION      0.00   515.55     0  01:19           0        2.79       0.008
  YS02001607           JUNCTION      0.00   515.28     0  01:19           0        2.78       0.058
  YS02001610           JUNCTION      0.00   516.54     0  01:19           0        2.78       0.086
  YS02001613           JUNCTION      0.00   515.68     0  01:19           0        2.71       0.057
  YS02001616           JUNCTION      0.00   516.18     0  01:19           0        2.71       0.013
  YS02001619           JUNCTION    513.29   895.85     0  01:27        2.47        5.18      -0.008
  YS02001622           JUNCTION      0.00   895.88     0  01:27           0        5.18      -0.005
  YS02001625           JUNCTION      0.00   895.61     0  01:27           0        5.18       0.196
  YS02001629           JUNCTION      0.00   895.66     0  01:27           0        5.11       0.003
  YS02001633           JUNCTION    362.64  1242.70     0  01:28        1.57        6.68       0.045
  YS02001641           JUNCTION      0.00  1243.37     0  01:28           0        6.69       0.040
  YS02001644           JUNCTION    317.10  1552.07     0  01:28        1.36        8.03       0.036
  YS02001647           JUNCTION      0.00  1553.80     0  01:28           0        8.02       0.001
  YS02001649           JUNCTION      0.00  1793.04     0  01:26           0        9.25       0.011
  YS02001652           JUNCTION      0.00   330.92     0  01:40           0        1.24      -0.074
  YS02001655           JUNCTION      0.15   490.11     0  01:40     0.00443        1.23      -0.272
  YS02001658           JUNCTION      0.00   521.88     0  01:40           0        1.23       0.056
  YS02001661           JUNCTION      0.00   289.30     0  01:33           0        1.23       0.071
  YS02001664           JUNCTION    289.31   289.31     0  01:33        1.23        1.23      -0.013
  YS02001745           JUNCTION    180.15   180.15     0  01:32       0.749       0.749       0.103
  YS02001748           JUNCTION      0.04   208.67     0  01:55      0.0013        0.75      -0.137
  YS02001751           JUNCTION      0.01   262.02     0  01:32    0.000317       0.751       0.112
  YS02001754           JUNCTION      0.26   247.94     0  01:33     0.00749       0.758      -0.198
  YS02001757           JUNCTION      0.00  2500.92     0  01:25           0        12.6       0.021
  YS02001759           JUNCTION    248.89   653.31     0  01:35        1.03        2.63      -0.025
  YS02001762           JUNCTION      0.00   403.99     0  01:35           0         1.6       0.003
  YS02001765           JUNCTION      0.00   404.58     0  01:30           0         1.6       0.006
  YS02001767           JUNCTION      0.54   410.93     0  01:30      0.0154         1.6       0.008
  YS02001770           JUNCTION    374.28   411.15     0  01:30        1.58        1.63      -0.021
  YS02001774           JUNCTION      0.00    90.43     0  01:29           0       0.076       1.430
  YS02001779           JUNCTION      0.01    71.03     0  01:30    0.000144      0.0263      -0.888
  YS02001783           JUNCTION      0.00  1123.71     0  01:37           0        4.98       0.004
  YS02001784           JUNCTION      1.06  1124.71     0  01:37      0.0305        5.01       0.012
  YS02001786           JUNCTION      0.06  1124.75     0  01:37     0.00162        5.01       0.014
  YS02001788           JUNCTION      0.07  1124.59     0  01:37     0.00204        5.01       0.007
  YS02001790           JUNCTION      0.15  1134.41     0  01:37     0.00446        5.01       0.009
  YS02001791           JUNCTION      0.00  1245.04     0  01:37           0        5.01      -0.002
  YS02001793           JUNCTION      0.00  1182.65     0  01:37           0        5.01       0.005
  YS02001882           JUNCTION      0.00    37.29     0  01:16           0      0.0154       4.783
  YS02001884           JUNCTION      0.00    78.97     0  01:13           0       0.052       5.212
  YS02001887           JUNCTION    258.12   261.53     0  01:22        1.09        1.12       0.381
  YS02001890           JUNCTION      0.00   262.74     0  01:25           0        1.08       0.483
  YS02001895           JUNCTION      0.00   262.48     0  01:25           0        1.07       0.226
  YS02001898           JUNCTION      0.00   264.24     0  01:25           0        1.07      -0.014
  YS02001901           JUNCTION      0.00   262.30     0  01:33           0        1.07       0.325
  YS02001904           JUNCTION      0.00   263.88     0  01:29           0        1.08       0.264
  YS02001907           JUNCTION      0.00   769.00     0  01:38           0        3.46       0.526
  YS02001910           JUNCTION      0.00   548.16     0  01:42           0        2.38       0.301
  YS02001915           JUNCTION    349.89   547.68     0  01:42         1.5        2.38       0.068
  YS02001918           JUNCTION      0.00   230.34     0  01:43           0       0.876       0.034
  YS02001920           JUNCTION      2.87   230.06     0  01:43      0.0827       0.877       0.112
  YS02001923           JUNCTION      0.04   207.73     0  01:42     0.00109       0.794      -0.005
  YS02001926           JUNCTION      0.05   182.77     0  01:41      0.0015       0.793       0.045
  YS02001929           JUNCTION    178.70   178.70     0  01:35       0.792       0.792      -0.008
  YS02006553           JUNCTION      0.00   769.17     0  01:38           0        3.46       0.347
  YS02006556           JUNCTION      0.00   769.02     0  01:39           0        3.47       0.238
  YS02006558           JUNCTION    373.97  1124.58     0  01:37        1.58        5.02       0.072
  YS02006561           JUNCTION      0.00  1123.58     0  01:37           0        4.98      -0.005
  YS02163301           JUNCTION      0.00   894.68     0  01:27           0        5.12       0.025
  YS02163601           JUNCTION      0.11  1241.97     0  01:28     0.00317        6.67       0.072
  YS02164001           JUNCTION      0.00  1241.95     0  01:28           0        6.68       0.034
  YSB1154              JUNCTION     73.42    73.42     0  01:35       0.314       0.314       0.459
  YSB1171              JUNCTION      0.00   130.12     0  01:35           0       0.557       1.153
  YSB1174              JUNCTION     57.86    57.86     0  01:33       0.235       0.236       0.544
  YSB6556              JUNCTION      0.00    73.30     0  01:35           0       0.315       0.405
  CC-1                 OUTFALL       0.00   683.00     0  00:00           0        5.07       0.000
  CC-2                 OUTFALL       0.00   683.00     0  00:00           0        4.78       0.000
  JK-1                 OUTFALL       0.00  1000.00     0  00:00           0        2.66       0.000
  JK-2                 OUTFALL       0.00  1000.00     0  00:00           0      0.0484       0.000
  WSC                  OUTFALL       0.00  1256.33     0  01:43           0        13.7       0.000
  CC-storage           STORAGE       0.00  2481.63     0  01:32           0        14.9      -0.113
  JK-storage           STORAGE       0.00  1187.12     0  01:35           0        5.16       0.005
  XR-storage           STORAGE     200.00   200.00     0  00:00        5.76        6.36       0.001
  
  
  **********************
  Node Surcharge Summary
  **********************
  
  Surcharging occurs when water rises above the top of the highest conduit.
  ---------------------------------------------------------------------
                                               Max. Height   Min. Depth
                                   Hours       Above Crown    Below Rim
  Node                 Type      Surcharged         Meters       Meters
  ---------------------------------------------------------------------
  HS02004817           JUNCTION        0.95          0.130        1.610
  WS02004401           JUNCTION        1.84          1.178        0.482
  WS02004402           JUNCTION        1.88          0.996        0.744
  WS02004403           JUNCTION        1.89          0.887        1.143
  WS02004404           JUNCTION        1.94          0.829        1.951
  WS02004405           JUNCTION        1.93          0.744        2.056
  WS02004406           JUNCTION        1.91          0.542        1.908
  WS02004409           JUNCTION        0.62          0.087        2.273
  WS02004410           JUNCTION        0.51          0.047        2.493
  WS02004411           JUNCTION        0.11          0.006        2.524
  WS02004413           JUNCTION        1.22          0.061        2.139
  WS02006109           JUNCTION        2.22          1.664        0.156
  WS02006110           JUNCTION        2.11          1.845        0.005
  WS02006111           JUNCTION        1.12          1.870        0.000
  WS02006112           JUNCTION        2.14          1.680        0.000
  WS02006113           JUNCTION        1.16          1.729        0.201
  WS02006115           JUNCTION        1.72          1.407        0.843
  WS02006116           JUNCTION        1.74          1.215        1.075
  WS02006228           JUNCTION        2.21          1.404        0.796
  WS02006229           JUNCTION        0.31          0.152        0.918
  WS02006230           JUNCTION        1.95          1.160        0.410
  WS02006231           JUNCTION        2.09          1.144        0.386
  WS02006232           JUNCTION        2.15          1.227        0.253
  WS02006234           JUNCTION        2.10          1.073        0.167
  WS02006235           JUNCTION        2.11          1.076        0.214
  WS02006238           JUNCTION        2.12          1.074        0.356
  WS02006239           JUNCTION        2.11          1.290        0.000
  WS02006240           JUNCTION        2.10          1.390        0.000
  WS02006242           JUNCTION        2.10          0.820        0.000
  WS02006243           JUNCTION        2.08          0.770        0.000
  WS02006245           JUNCTION        2.08          0.850        0.000
  WS02006247           JUNCTION        2.08          0.760        0.000
  WS02006248           JUNCTION        2.07          0.380        0.000
  WS02006249           JUNCTION        2.07          0.390        0.000
  WS02006251           JUNCTION        2.04          1.180        0.000
  WS02006252           JUNCTION        2.18          1.100        0.000
  WS02006253           JUNCTION        2.04          2.480        0.000
  WS02006256           JUNCTION        4.45          2.050        0.000
  YS02001580           JUNCTION        0.63          0.450        0.000
  YS02001583           JUNCTION        0.65          0.500        0.000
  YS02001586           JUNCTION        1.00          0.510        0.000
  YS02001590           JUNCTION        1.14          0.727        0.023
  YS02001593           JUNCTION        1.15          0.685        0.155
  YS02001596           JUNCTION        1.33          0.937        0.133
  YS02001600           JUNCTION        1.51          1.190        0.000
  YS02001601           JUNCTION        1.96          1.440        0.000
  YS02001602           JUNCTION        1.89          1.270        0.000
  YS02001605           JUNCTION        1.85          1.180        0.000
  YS02001607           JUNCTION        1.14          0.680        0.000
  YS02001610           JUNCTION        1.19          0.680        0.000
  YS02001613           JUNCTION        1.13          0.700        0.000
  YS02001616           JUNCTION        1.05          0.610        0.000
  YS02001619           JUNCTION        1.02          0.610        0.000
  YS02001622           JUNCTION        1.02          0.620        0.000
  YS02001625           JUNCTION        1.30          0.780        0.000
  YS02001629           JUNCTION        0.92          0.470        0.000
  YS02001633           JUNCTION        1.33          1.001        0.059
  YS02001641           JUNCTION        1.26          1.100        0.000
  YS02001644           JUNCTION        1.23          0.920        0.000
  YS02001647           JUNCTION        0.81          0.705        0.195
  YS02001649           JUNCTION        1.04          0.881        0.169
  YS02001652           JUNCTION        0.69          1.078        0.052
  YS02001655           JUNCTION        0.15          1.200        0.000
  YS02001754           JUNCTION        0.44          0.189        0.961
  YS02001757           JUNCTION        1.12          0.657        0.553
  YS02001759           JUNCTION        0.98          0.591        0.619
  YS02001762           JUNCTION        0.91          0.708        0.442
  YS02001765           JUNCTION        0.83          0.583        0.517
  YS02001767           JUNCTION        0.78          0.611        0.419
  YS02001770           JUNCTION        0.74          0.611        0.309
  YS02001774           JUNCTION        0.88          0.718        0.332
  YS02001779           JUNCTION        0.41          0.479        0.201
  YS02001783           JUNCTION        0.63          0.385        1.215
  YS02001784           JUNCTION        0.57          0.280        1.210
  YS02001786           JUNCTION        0.23          0.047        1.383
  YS02001882           JUNCTION        0.46          0.521        0.309
  YS02001884           JUNCTION        0.50          0.564        0.306
  YS02001887           JUNCTION        0.59          0.646        0.304
  YS02001890           JUNCTION        0.63          0.679        0.081
  YS02001895           JUNCTION        0.42          0.482        0.268
  YS02001898           JUNCTION        0.39          0.459        0.281
  YS02001901           JUNCTION        0.57          0.617        0.253
  YS02001904           JUNCTION        0.54          0.587        0.263
  YS02001907           JUNCTION        0.99          0.921        0.029
  YS02001910           JUNCTION        0.69          0.731        0.369
  YS02001915           JUNCTION        0.47          0.535        0.465
  YS02001918           JUNCTION        0.18          0.186        0.624
  YS02001920           JUNCTION        0.22          0.250        0.890
  YS02006553           JUNCTION        1.04          0.916        0.274
  YS02006556           JUNCTION        0.84          0.817        0.533
  YS02006558           JUNCTION        0.83          0.785        0.615
  YS02006561           JUNCTION        0.08          0.029        1.121
  YS02163301           JUNCTION        1.31          0.927        0.103
  YS02163601           JUNCTION        1.36          1.080        0.000
  YS02164001           JUNCTION        1.26          1.100        0.000
  YSB1154              JUNCTION        0.04          0.001        1.399
  YSB1171              JUNCTION        0.07          0.002        1.098
  
  
  *********************
  Node Flooding Summary
  *********************
  
  Flooding refers to all water that overflows a node, whether it ponds or not.
  --------------------------------------------------------------------------
                                                             Total   Maximum
                                 Maximum   Time of Max       Flood    Ponded
                        Hours       Rate    Occurrence      Volume     Depth
  Node                 Flooded       LPS   days hr:min    10^6 ltr    Meters
  --------------------------------------------------------------------------
  WS02006111              0.01    149.82      0  01:24       0.000     0.000
  WS02006112              0.01     55.26      0  01:24       0.000     0.000
  WS02006239              0.01    146.97      0  01:21       0.000     0.000
  WS02006240              0.01    181.26      0  01:21       0.000     0.000
  WS02006242              0.03     66.79      0  01:21       0.000     0.000
  WS02006243              0.01    156.25      0  01:22       0.000     0.000
  WS02006245              0.01    234.24      0  01:21       0.000     0.000
  WS02006247              0.01    390.86      0  01:22       0.001     0.000
  WS02006248              0.93    443.27      0  01:22       0.720     0.000
  WS02006249              2.05    632.88      0  01:25       2.801     0.000
  WS02006251              0.01    269.09      0  01:23       0.000     0.000
  WS02006252              0.01    245.63      0  00:00       0.000     0.000
  WS02006253              0.01    410.25      0  01:22       0.000     0.000
  WS02006256              2.13    293.19      0  00:00       1.034     0.000
  YS02001580              0.01     40.27      0  01:20       0.000     0.000
  YS02001583              0.01     31.01      0  01:20       0.000     0.000
  YS02001586              0.01     43.30      0  01:20       0.000     0.000
  YS02001600              0.01      0.22      0  01:29       0.000     0.000
  YS02001601              0.91    388.65      0  01:35       0.798     0.000
  YS02001602              0.60     61.97      0  01:48       0.110     0.000
  YS02001605              0.01      0.17      0  01:59       0.000     0.000
  YS02001607              0.01      0.59      0  01:59       0.000     0.000
  YS02001610              0.44     76.77      0  01:36       0.078     0.000
  YS02001613              0.01      1.17      0  01:59       0.000     0.000
  YS02001616              0.01      0.92      0  01:59       0.000     0.000
  YS02001619              0.01      1.39      0  01:59       0.000     0.000
  YS02001622              0.01      0.55      0  01:59       0.000     0.000
  YS02001625              0.39    106.14      0  01:37       0.057     0.000
  YS02001629              0.01     10.07      0  01:57       0.000     0.000
  YS02001641              0.01      0.66      0  01:57       0.000     0.000
  YS02001644              0.01      0.99      0  01:57       0.000     0.000
  YS02001655              0.01    143.50      0  01:57       0.000     0.000
  YS02163601              0.01      0.75      0  01:57       0.000     0.000
  YS02164001              0.01      2.13      0  01:57       0.000     0.000
  
  
  **********************
  Storage Volume Summary
  **********************
  
  --------------------------------------------------------------------------------------------------
                         Average     Avg  Evap Exfil       Maximum     Max    Time of Max    Maximum
                          Volume    Pcnt  Pcnt  Pcnt        Volume    Pcnt     Occurrence    Outflow
  Storage Unit           1000 m3    Full  Loss  Loss       1000 m3    Full    days hr:min        LPS
  --------------------------------------------------------------------------------------------------
  CC-storage               2.611      41     0     0         4.543      71       0  02:10    1783.53
  JK-storage               0.113      39     0     0         0.212      73       0  01:48    2300.00
  XR-storage               0.939      65     0     0         1.111      77       0  08:00     380.00
  
  
  ***********************
  Outfall Loading Summary
  ***********************
  
  -----------------------------------------------------------
                         Flow       Avg       Max       Total
                         Freq      Flow      Flow      Volume
  Outfall Node           Pcnt       LPS       LPS    10^6 ltr
  -----------------------------------------------------------
  CC-1                  42.49    683.00    683.00       5.065
  CC-2                  39.81    683.00    683.00       4.780
  JK-1                  17.67   1000.00   1000.00       2.656
  JK-2                   0.19   1000.00   1000.00       0.048
  WSC                   99.94    631.07   1256.33      13.688
  -----------------------------------------------------------
  System                40.02   3997.07   1256.33      26.237
  
  
  ********************
  Link Flow Summary
  ********************
  
  -----------------------------------------------------------------------------
                                 Maximum  Time of Max   Maximum    Max/    Max/
                                  |Flow|   Occurrence   |Veloc|    Full    Full
  Link                 Type          LPS  days hr:min     m/sec    Flow   Depth
  -----------------------------------------------------------------------------
  1                    CONDUIT   1256.33     0  01:43      3.53    0.44    0.46
  HS02004478WS02006287 CONDUIT   1143.48     0  01:38      2.51    0.32    0.51
  HS02004479HS02004480 CONDUIT    129.49     0  01:35      0.47    0.13    0.76
  HS02004480HS02004478 CONDUIT    858.77     0  01:37      1.86    3.62    0.66
  HS02004770HS02004777 CONDUIT    292.96     0  01:36      0.62    0.54    0.67
  HS02004777HS02004785 CONDUIT    292.89     0  01:37      0.73    0.36    0.57
  HS02004785HS02004788 CONDUIT    293.05     0  01:37      1.09    2.21    0.38
  HS02004788HS02004792 CONDUIT    384.93     0  01:37      1.43    0.25    0.38
  HS02004792HS02004799 CONDUIT    669.05     0  01:37      1.44    0.41    0.66
  HS02004799HS02004480 CONDUIT    730.19     0  01:37      1.32    0.92    0.79
  HS02004802HS02004478 CONDUIT    288.52     0  01:41      0.63    0.25    0.67
  HS02004807HS02004802 CONDUIT    287.52     0  01:40      0.57    0.55    0.73
  HS02004817HS02004807 CONDUIT    215.10     0  01:41      0.36    0.13    0.86
  HS02004817HS02004824 CONDUIT    214.48     0  01:41      0.45    0.10    0.69
  HS02004824HS02004830 CONDUIT    102.33     0  01:40      0.64    0.13    0.34
  HS02004830HS02004837 CONDUIT    101.85     0  01:38      0.69    0.10    0.23
  HS02004837HS02004842 CONDUIT     29.58     0  01:57      0.41    0.02    0.39
  HS02004842HS02004848 CONDUIT     29.05     0  01:54      0.11    0.02    0.38
  HS02004848HS02004852 CONDUIT     67.87     0  01:38      0.64    0.08    0.15
  HS02004852HS02004856 CONDUIT     67.95     0  01:38      0.45    0.08    0.21
  HS02004856HS02004862 CONDUIT     98.60     0  01:37      0.74    0.10    0.19
  HS02004862HS02004870 CONDUIT    140.37     0  01:38      0.99    0.15    0.20
  HS02004870HS02004876 CONDUIT    181.31     0  01:37      1.05    0.12    0.25
  HS02004876HS02004881 CONDUIT    222.96     0  01:37      1.56    2.37    0.23
  HS02004881HS02006253 CONDUIT    330.16     0  01:23      2.77    0.06    0.59
  HS02004901HS02004770 CONDUIT     56.43     0  01:36      0.12    0.21    0.67
  WS02001211WS02001212 CONDUIT    210.96     0  01:33      0.54    0.16    0.62
  WS02001212WS02001213 CONDUIT    208.71     0  03:23      1.04    0.32    0.49
  WS02001213WS02003059 CONDUIT    214.08     0  03:21      0.47    0.35    0.82
  WS02003059WS02003060 CONDUIT    220.18     0  03:20      0.66    0.14    0.74
  WS02003060WS02003069 CONDUIT   1254.54     0  01:41      2.00    0.49    0.54
  WS02003066WSF200     CONDUIT   1042.52     0  01:40      3.24    0.18    0.34
  WS02003067WS02003066 CONDUIT   1042.47     0  01:39      1.76    0.33    0.52
  WS02003069WS02003072 CONDUIT   1254.63     0  01:42      1.78    0.60    0.60
  WS02003072WS02003073 CONDUIT   1254.55     0  01:43      1.92    2.71    0.56
  WS02004138WS02004139 CONDUIT    190.63     0  00:29      2.18    0.04    0.38
  WS02004139WS02001211 CONDUIT    217.78     0  01:30      0.54    0.28    0.55
  WS02004401WS02004402 CONDUIT   1043.52     0  01:38      1.33    1.25    1.00
  WS02004402WS02004403 CONDUIT   1043.60     0  01:38      1.33    1.50    1.00
  WS02004403WS02004404 CONDUIT   1044.06     0  01:38      1.33    0.75    1.00
  WS02004404WS02004405 CONDUIT   1051.32     0  01:24      1.39   10.30    1.00
  WS02004405WS02004406 CONDUIT   1072.64     0  01:24      1.37    2.12    1.00
  WS02004406WS02004407 CONDUIT   1083.37     0  01:24      1.82    0.48    0.75
  WS02004407WS02004409 CONDUIT   1042.41     0  01:39      2.02    0.37    0.75
  WS02004409WS02004410 CONDUIT   1042.39     0  01:39      1.42    1.35    1.00
  WS02004410WS02004411 CONDUIT   1042.39     0  01:39      1.36    1.42    1.00
  WS02004411WS02004412 CONDUIT   1042.45     0  01:39      1.33    1.48    0.98
  WS02004412WS02004413 CONDUIT   1042.44     0  01:40      1.33    0.70    0.98
  WS02004413WS02003067 CONDUIT   1042.45     0  01:40      1.69    0.45    0.73
  WS02006109WS02006110 CONDUIT   1023.81     0  01:23      2.04    1.97    1.00
  WS02006110WS02006113 CONDUIT   1023.84     0  01:23      2.09    0.93    1.00
  WS02006111WS02006112 CONDUIT    997.35     0  01:38      1.98    0.47    1.00
  WS02006112WS02006115 CONDUIT   1043.20     0  01:38      1.33    0.62    1.00
  WS02006113WS02006111 CONDUIT    997.22     0  01:38      2.73    1.20    1.00
  WS02006115WS02006116 CONDUIT   1043.44     0  01:38      1.33    1.34    1.00
  WS02006116WS02004401 CONDUIT   1043.21     0  01:38      1.33    1.44    1.00
  WS02006228WS02006109 CONDUIT   1022.48     0  01:23      2.03    4.47    1.00
  WS02006229WS02006228 CONDUIT   1022.50     0  01:23      2.03    3.39    1.00
  WS02006230WS02006229 CONDUIT    487.84     0  03:15      1.27   10.86    1.00
  WS02006231WS02006230 CONDUIT    477.36     0  03:15      1.34    7.24    1.00
  WS02006232WS02006231 CONDUIT    477.34     0  03:15      1.24    1.00    1.00
  WS02006234WS02006232 CONDUIT    477.32     0  03:15      1.41    0.97    1.00
  WS02006235WS02006234 CONDUIT    477.30     0  03:15      1.24    5.04    1.00
  WS02006238WS02006235 CONDUIT    416.81     0  03:25      1.45    0.93    1.00
  WS02006239WS02006238 CONDUIT    416.71     0  03:25      1.12    1.33    1.00
  WS02006240WS02006239 CONDUIT    416.68     0  03:25      1.26    1.31    1.00
  WS02006242WS02006240 CONDUIT    416.64     0  03:25      1.14    1.65    1.00
  WS02006243WS02006242 CONDUIT    416.63     0  03:25      1.34    0.89    1.00
  WS02006245WS02006243 CONDUIT    416.60     0  03:25      1.39    1.23    1.00
  WS02006247WS02006245 CONDUIT    416.58     0  03:25      1.37    3.30    1.00
  WS02006248WS02006247 CONDUIT    416.49     0  03:25      1.38    0.91    1.00
  WS02006249WS02006248 CONDUIT    416.45     0  03:25      1.38    2.28    1.00
  WS02006251WS02006249 CONDUIT    663.81     0  01:25      1.72    1.91    1.00
  WS02006252WS02006251 CONDUIT    412.53     0  01:25     24.89    1.51    1.00
  WS02006253WS02006251 CONDUIT    342.41     0  03:26      1.19    1.03    1.00
  WS02006256WS02006235 CONDUIT    288.93     0  00:00      4.23    3.06    1.00
  WS02006280WS02006229 CONDUIT   1144.67     0  01:39      4.47    0.24    0.83
  WS02006284WS02006280 CONDUIT   1143.85     0  01:38      2.96    0.48    0.56
  WS02006287WS02006284 CONDUIT   1143.51     0  01:38      2.74    0.53    0.53
  WSF200WS02003060     CONDUIT   1042.94     0  01:40      2.38    0.23    0.44
  YS02001580YS02001583 CONDUIT     66.05     0  01:20      0.53    0.26    1.00
  YS02001583YS02001586 CONDUIT    104.57     0  01:19      0.47    0.16    1.00
  YS02001586YS02001590 CONDUIT    301.97     0  01:38      1.25    0.53    1.00
  YS02001590YS02001593 CONDUIT    301.92     0  01:37      1.07    1.90    1.00
  YS02001593YS02001596 CONDUIT    301.84     0  01:38      1.72    0.48    1.00
  YS02001596YS02001600 CONDUIT    302.01     0  01:37      1.20    0.59    1.00
  YS02001600YS02001601 CONDUIT    301.88     0  01:37      1.07    0.52    1.00
  YS02001601YS02001602 CONDUIT    515.65     0  01:19      1.82    1.86    1.00
  YS02001602YS02001605 CONDUIT    515.55     0  01:19      1.82   10.91    1.00
  YS02001605YS02001607 CONDUIT    515.28     0  01:19      1.82    2.83    1.00
  YS02001607YS02001610 CONDUIT    516.54     0  01:19      0.72    0.49    1.00
  YS02001610YS02001613 CONDUIT    515.68     0  01:19      0.66    0.59    1.00
  YS02001613YS02001616 CONDUIT    516.18     0  01:19      0.71    0.44    1.00
  YS02001616YS02001619 CONDUIT    512.56     0  01:19      0.76    0.89    1.00
  YS02001619YS02001622 CONDUIT    895.88     0  01:27      1.58    1.32    1.00
  YS02001622YS02001625 CONDUIT    895.61     0  01:27      1.14    0.48    1.00
  YS02001625YS02001629 CONDUIT    895.66     0  01:27      1.14    0.43    1.00
  YS02001629YS02163301 CONDUIT    894.68     0  01:27      1.14    1.10    1.00
  YS02001633YS02163601 CONDUIT   1241.86     0  01:28      1.58    1.30    1.00
  YS02001641YS02001644 CONDUIT   1246.38     0  01:28      1.59    4.03    1.00
  YS02001644YS02001647 CONDUIT   1553.80     0  01:28      2.06    0.91    1.00
  YS02001647YS02001649 CONDUIT   1547.78     0  01:28      2.29    0.82    1.00
  YS02001649YS02001757 CONDUIT   1774.55     0  01:26      2.48    1.08    1.00
  YS02001652YS02001649 CONDUIT    331.68     0  01:41      1.18    0.16    1.00
  YS02001655YS02001652 CONDUIT    330.92     0  01:40      1.63    0.16    1.00
  YS02001658YS02001655 CONDUIT    489.96     0  01:40      1.85    0.21    0.91
  YS02001661YS02001658 CONDUIT    521.88     0  01:40      2.07    0.20    0.55
  YS02001664YS02001661 CONDUIT    289.30     0  01:33      1.88    0.09    0.36
  YS02001745YS02001748 CONDUIT    208.63     0  01:55      1.90    0.08    0.38
  YS02001748YS02001751 CONDUIT    262.01     0  01:32      1.57    0.13    0.75
  YS02001751YS02001754 CONDUIT    247.68     0  01:33      1.53    0.12    0.93
  YS02001754YS02001757 CONDUIT    230.89     0  01:38      0.90    0.09    1.00
  YS02001757CaochengTiaoxuchi CONDUIT   2481.63     0  01:32      3.18    1.07    1.00
  YS02001759YS02001757 CONDUIT    656.54     0  01:35      1.25    0.47    1.00
  YS02001762YS02001759 CONDUIT    408.24     0  01:35      0.70    0.47    1.00
  YS02001765YS02001762 CONDUIT    403.99     0  01:35      0.83    0.38    1.00
  YS02001767YS02001765 CONDUIT    404.58     0  01:30      0.91    0.51    1.00
  YS02001770YS02001767 CONDUIT    410.40     0  01:30      0.86    1.63    1.00
  YS02001774YS02001770 CONDUIT     90.43     0  01:29      0.62    0.06    1.00
  YS02001779YS02001774 CONDUIT     71.03     0  01:30      0.17    0.04    1.00
  YS02001783YS02001784 CONDUIT   1123.65     0  01:37      2.24    1.55    1.00
  YS02001784YS02001785 CONDUIT   1124.69     0  01:37      2.24    2.62    1.00
  YS02001786YS02001788 CONDUIT   1124.52     0  01:37      2.42    2.17    0.88
  YS02001788YS02001790 CONDUIT   1134.26     0  01:37      2.67    0.84    0.82
  YS02001790YS02001791 CONDUIT   1245.04     0  01:37      3.38    1.35    0.69
  YS02001791YS02001793 CONDUIT   1182.65     0  01:37      6.69    0.51    0.39
  YS02001793JiankangQianchi CONDUIT   1187.12     0  01:35      2.40    0.09    0.62
  YS02001882YS02001884 CONDUIT     37.29     0  01:16      0.34    0.04    1.00
  YS02001884YS02001887 CONDUIT     78.97     0  01:13      0.27    0.11    1.00
  YS02001887YS02001890 CONDUIT    262.74     0  01:25      0.35    0.45    1.00
  YS02001890YS02001895 CONDUIT    262.48     0  01:25      0.37    0.12    1.00
  YS02001895YS02001898 CONDUIT    264.24     0  01:25      0.62    0.46    1.00
  YS02001898YS02001901 CONDUIT    262.30     0  01:33      0.53    0.17    1.00
  YS02001901YS02001904 CONDUIT    263.88     0  01:29      0.54    0.41    1.00
  YS02001904YS02001907 CONDUIT    262.50     0  01:33      0.33    0.09    1.00
  YS02001907YS02006553 CONDUIT    769.17     0  01:38      0.85    0.90    1.00
  YS02001910YS02001907 CONDUIT    547.86     0  01:42      0.70    0.31    1.00
  YS02001915YS02001910 CONDUIT    548.16     0  01:42      1.00    0.27    1.00
  YS02001918YS02001915 CONDUIT    249.14     0  01:47      0.44    0.14    1.00
  YS02001920YS02001918 CONDUIT    230.34     0  01:43      0.67    0.22    1.00
  YS02001923YS02001920 CONDUIT    227.19     0  01:43      0.74    0.10    1.00
  YS02001926YS02001923 CONDUIT    207.70     0  01:42      0.91    0.30    0.80
  YS02001929YS02001926 CONDUIT    182.72     0  01:41      1.01    0.09    0.68
  YS02006553YS02006556 CONDUIT    769.02     0  01:39      0.98    0.66    1.00
  YS02006556YS02006558 CONDUIT    769.46     0  01:39      0.98    0.61    1.00
  YS02006558YS02006561 CONDUIT   1123.58     0  01:37      3.97    2.48    1.00
  YS02006561YS02001783 CONDUIT   1123.71     0  01:37      2.27    0.58    1.00
  YS02163301YS02001633 CONDUIT    895.02     0  01:28      1.14    0.84    1.00
  YS02163601YS02164001 CONDUIT   1241.95     0  01:28      1.58    1.10    1.00
  YS02164001YS02001641 CONDUIT   1243.37     0  01:28      1.58    1.70    1.00
  YSB1154YSB6556       CONDUIT     73.30     0  01:35      0.20    0.13    0.92
  YSB1171HS02004479    CONDUIT    130.04     0  01:35      0.54    0.09    0.84
  YSB1174YSB1171       CONDUIT     57.56     0  01:33      0.15    0.09    0.96
  YSB6556YSB1171       CONDUIT     73.17     0  01:36      0.20    0.08    0.92
  CC-R1                PUMP       683.00     0  00:00              1.00
  CC-R2                PUMP       683.00     0  00:00              1.00
  CC-S1                PUMP       200.00     0  00:00              1.00
  CC-S2                PUMP       200.00     0  00:00              1.00
  JK-R1                PUMP      1000.00     0  00:00              1.00
  JK-R2                PUMP      1000.00     0  00:00              1.00
  JK-S                 PUMP       300.00     0  00:00              1.00
  XR-1                 PUMP        95.00     0  00:00              1.00
  XR-2                 PUMP        95.00     0  00:00              1.00
  XR-3                 PUMP        95.00     0  00:00              1.00
  XR-4                 PUMP        95.00     0  00:00              1.00
  
  
  ***************************
  Flow Classification Summary
  ***************************
  
  -------------------------------------------------------------------------------------
                      Adjusted    ---------- Fraction of Time in Flow Class ---------- 
                       /Actual         Up    Down  Sub   Sup   Up    Down  Norm  Inlet 
  Conduit               Length    Dry  Dry   Dry   Crit  Crit  Crit  Crit  Ltd   Ctrl  
  -------------------------------------------------------------------------------------
  1                       1.00   0.00  0.00  0.00  0.00  1.00  0.00  0.00  0.40  0.00
  HS02004478WS02006287    1.00   0.09  0.00  0.00  0.44  0.47  0.00  0.00  0.60  0.00
  HS02004479HS02004480    1.00   0.04  0.00  0.00  0.96  0.00  0.00  0.00  0.10  0.00
  HS02004480HS02004478    1.00   0.09  0.00  0.00  0.37  0.00  0.00  0.54  0.00  0.00
  HS02004770HS02004777    1.00   0.00  0.09  0.00  0.91  0.00  0.00  0.00  0.01  0.00
  HS02004777HS02004785    1.00   0.00  0.00  0.00  1.00  0.00  0.00  0.00  0.10  0.00
  HS02004785HS02004788    1.00   0.00  0.00  0.00  1.00  0.00  0.00  0.00  0.00  0.00
  HS02004788HS02004792    1.00   0.00  0.00  0.00  0.99  0.01  0.00  0.00  0.98  0.00
  HS02004792HS02004799    1.00   0.00  0.00  0.00  0.99  0.01  0.00  0.00  0.92  0.00
  HS02004799HS02004480    1.00   0.00  0.04  0.00  0.90  0.00  0.05  0.00  0.00  0.00
  HS02004802HS02004478    1.00   0.09  0.00  0.00  0.91  0.00  0.00  0.00  0.01  0.00
  HS02004807HS02004802    1.00   0.09  0.00  0.00  0.91  0.00  0.00  0.01  0.00  0.00
  HS02004817HS02004807    1.00   0.00  0.09  0.00  0.91  0.00  0.00  0.00  0.01  0.00
  HS02004817HS02004824    1.00   0.00  0.00  0.00  1.00  0.00  0.00  0.00  0.83  0.00
  HS02004824HS02004830    1.00   0.00  0.00  0.00  1.00  0.00  0.00  0.00  0.03  0.00
  HS02004830HS02004837    1.00   0.00  0.00  0.00  1.00  0.00  0.00  0.00  0.99  0.00
  HS02004837HS02004842    1.00   0.00  0.00  0.00  1.00  0.00  0.00  0.00  0.11  0.00
  HS02004842HS02004848    1.00   0.00  0.09  0.00  0.91  0.00  0.00  0.00  0.56  0.00
  HS02004848HS02004852    1.00   0.09  0.00  0.00  0.91  0.00  0.00  0.00  0.84  0.00
  HS02004852HS02004856    1.00   0.09  0.00  0.00  0.91  0.00  0.00  0.00  0.69  0.00
  HS02004856HS02004862    1.00   0.00  0.10  0.00  0.90  0.00  0.00  0.00  0.86  0.00
  HS02004862HS02004870    1.00   0.00  0.00  0.00  1.00  0.00  0.00  0.00  0.02  0.00
  HS02004870HS02004876    1.00   0.00  0.00  0.00  0.99  0.01  0.00  0.00  0.95  0.00
  HS02004876HS02004881    1.00   0.02  0.00  0.00  0.57  0.41  0.00  0.00  0.00  0.00
  HS02004881HS02006253    1.00   0.03  0.02  0.00  0.45  0.02  0.00  0.47  0.27  0.00
  HS02004901HS02004770    1.00   0.09  0.00  0.00  0.91  0.00  0.00  0.00  0.00  0.00
  WS02001211WS02001212    1.00   0.00  0.03  0.00  0.97  0.00  0.00  0.00  0.00  0.00
  WS02001212WS02001213    1.00   0.03  0.00  0.00  0.48  0.00  0.49  0.00  0.00  0.00
  WS02001213WS02003059    1.00   0.00  0.00  0.00  0.99  0.00  0.00  0.00  0.00  0.00
  WS02003059WS02003060    1.00   0.00  0.00  0.00  1.00  0.00  0.00  0.00  0.03  0.00
  WS02003060WS02003069    1.00   0.00  0.00  0.00  0.98  0.02  0.00  0.00  0.55  0.00
  WS02003066WSF200        1.00   0.06  0.00  0.00  0.00  0.94  0.00  0.00  0.66  0.00
  WS02003067WS02003066    1.00   0.05  0.00  0.00  0.94  0.00  0.00  0.00  0.00  0.00
  WS02003069WS02003072    1.00   0.00  0.00  0.00  1.00  0.00  0.00  0.00  0.66  0.00
  WS02003072WS02003073    1.00   0.00  0.00  0.00  0.00  0.00  0.00  1.00  0.00  0.00
  WS02004138WS02004139    1.00   0.00  0.01  0.00  0.97  0.01  0.00  0.02  0.98  0.00
  WS02004139WS02001211    1.00   0.00  0.00  0.00  0.99  0.00  0.00  0.00  0.00  0.00
  WS02004401WS02004402    1.00   0.03  0.00  0.00  0.97  0.00  0.00  0.00  0.00  0.00
  WS02004402WS02004403    1.00   0.03  0.00  0.00  0.97  0.00  0.00  0.00  0.00  0.00
  WS02004403WS02004404    1.00   0.00  0.03  0.00  0.97  0.00  0.00  0.00  0.00  0.00
  WS02004404WS02004405    1.00   0.00  0.00  0.00  1.00  0.00  0.00  0.00  0.01  0.00
  WS02004405WS02004406    1.00   0.00  0.00  0.00  1.00  0.00  0.00  0.00  0.00  0.00
  WS02004406WS02004407    1.00   0.00  0.04  0.00  0.96  0.00  0.00  0.00  0.00  0.00
  WS02004407WS02004409    1.00   0.04  0.00  0.00  0.94  0.02  0.00  0.00  0.87  0.00
  WS02004409WS02004410    1.00   0.04  0.00  0.00  0.96  0.00  0.00  0.00  0.00  0.00
  WS02004410WS02004411    1.00   0.04  0.00  0.00  0.96  0.00  0.00  0.00  0.00  0.00
  WS02004411WS02004412    1.00   0.04  0.00  0.00  0.96  0.00  0.00  0.00  0.00  0.00
  WS02004412WS02004413    1.00   0.04  0.00  0.00  0.95  0.00  0.00  0.00  0.00  0.00
  WS02004413WS02003067    1.00   0.05  0.01  0.00  0.00  0.00  0.95  0.00  0.00  0.00
  WS02006109WS02006110    1.00   0.00  0.01  0.00  0.98  0.00  0.01  0.00  0.00  0.00
  WS02006110WS02006113    1.00   0.01  0.01  0.00  0.98  0.00  0.00  0.00  0.00  0.00
  WS02006111WS02006112    1.00   0.02  0.00  0.00  0.97  0.00  0.00  0.00  0.74  0.00
  WS02006112WS02006115    1.00   0.02  0.00  0.00  0.97  0.00  0.00  0.00  0.00  0.00
  WS02006113WS02006111    1.00   0.02  0.00  0.00  0.37  0.61  0.00  0.00  0.08  0.00
  WS02006115WS02006116    1.00   0.03  0.00  0.00  0.97  0.00  0.00  0.01  0.00  0.00
  WS02006116WS02004401    1.00   0.03  0.00  0.00  0.97  0.00  0.00  0.00  0.00  0.00
  WS02006228WS02006109    1.00   0.00  0.00  0.00  1.00  0.00  0.00  0.00  0.00  0.00
  WS02006229WS02006228    1.00   0.00  0.00  0.00  0.99  0.00  0.00  0.01  0.00  0.00
  WS02006230WS02006229    1.00   0.00  0.00  0.00  0.98  0.00  0.00  0.02  0.01  0.00
  WS02006231WS02006230    1.00   0.00  0.00  0.00  0.52  0.00  0.48  0.00  0.00  0.00
  WS02006232WS02006231    1.00   0.00  0.00  0.00  0.99  0.00  0.00  0.00  0.00  0.00
  WS02006234WS02006232    1.00   0.00  0.00  0.00  1.00  0.00  0.00  0.00  0.36  0.00
  WS02006235WS02006234    1.00   0.00  0.00  0.00  0.71  0.00  0.28  0.00  0.00  0.00
  WS02006238WS02006235    1.00   0.00  0.00  0.00  1.00  0.00  0.00  0.00  0.00  0.00
  WS02006239WS02006238    1.00   0.00  0.00  0.00  1.00  0.00  0.00  0.00  0.49  0.00
  WS02006240WS02006239    1.00   0.00  0.00  0.00  0.63  0.00  0.00  0.36  0.00  0.00
  WS02006242WS02006240    1.00   0.00  0.00  0.00  0.98  0.00  0.02  0.00  0.00  0.00
  WS02006243WS02006242    1.00   0.00  0.00  0.00  0.99  0.00  0.00  0.01  0.64  0.00
  WS02006245WS02006243    1.00   0.00  0.00  0.00  0.89  0.00  0.00  0.11  0.00  0.00
  WS02006247WS02006245    1.00   0.00  0.00  0.00  0.99  0.00  0.00  0.01  0.00  0.00
  WS02006248WS02006247    1.00   0.00  0.00  0.00  1.00  0.00  0.00  0.00  0.61  0.00
  WS02006249WS02006248    1.00   0.00  0.00  0.00  0.56  0.00  0.44  0.00  0.00  0.00
  WS02006251WS02006249    1.00   0.00  0.00  0.00  1.00  0.00  0.00  0.00  0.67  0.00
  WS02006252WS02006251    1.00   0.00  0.52  0.00  0.44  0.00  0.03  0.00  0.00  0.00
  WS02006253WS02006251    1.00   0.00  0.00  0.00  0.98  0.00  0.02  0.00  0.00  0.00
  WS02006256WS02006235    1.00   0.00  0.00  0.00  1.00  0.00  0.00  0.00  0.00  0.00
  WS02006280WS02006229    1.00   0.09  0.00  0.00  0.25  0.12  0.00  0.53  0.04  0.00
  WS02006284WS02006280    1.00   0.09  0.00  0.00  0.00  0.07  0.00  0.84  0.00  0.00
  WS02006287WS02006284    1.00   0.08  0.02  0.00  0.33  0.57  0.00  0.00  0.65  0.00
  WSF200WS02003060        1.00   0.00  0.06  0.00  0.48  0.46  0.00  0.00  0.64  0.00
  YS02001580YS02001583    1.00   0.12  0.47  0.00  0.41  0.00  0.00  0.00  0.70  0.00
  YS02001583YS02001586    1.00   0.26  0.23  0.00  0.50  0.00  0.00  0.00  0.70  0.00
  YS02001586YS02001590    1.00   0.09  0.00  0.00  0.64  0.02  0.00  0.25  0.32  0.00
  YS02001590YS02001593    1.00   0.09  0.00  0.00  0.32  0.00  0.59  0.00  0.00  0.00
  YS02001593YS02001596    1.00   0.09  0.00  0.00  0.35  0.02  0.00  0.54  0.03  0.00
  YS02001596YS02001600    1.00   0.09  0.00  0.00  0.45  0.02  0.00  0.45  0.03  0.00
  YS02001600YS02001601    1.00   0.09  0.00  0.00  0.91  0.00  0.00  0.00  0.57  0.00
  YS02001601YS02001602    1.00   0.09  0.00  0.00  0.91  0.00  0.00  0.00  0.00  0.00
  YS02001602YS02001605    1.00   0.09  0.00  0.00  0.91  0.00  0.00  0.00  0.00  0.00
  YS02001605YS02001607    1.00   0.09  0.00  0.00  0.91  0.00  0.00  0.00  0.00  0.00
  YS02001607YS02001610    1.00   0.09  0.00  0.00  0.91  0.00  0.00  0.00  0.00  0.00
  YS02001610YS02001613    1.00   0.09  0.00  0.00  0.91  0.00  0.00  0.00  0.00  0.00
  YS02001613YS02001616    1.00   0.09  0.00  0.00  0.91  0.00  0.00  0.00  0.00  0.00
  YS02001616YS02001619    1.00   0.09  0.00  0.00  0.91  0.00  0.00  0.00  0.00  0.00
  YS02001619YS02001622    1.00   0.09  0.00  0.00  0.91  0.00  0.00  0.00  0.28  0.00
  YS02001622YS02001625    1.00   0.09  0.00  0.00  0.91  0.00  0.00  0.00  0.01  0.00
  YS02001625YS02001629    1.00   0.09  0.01  0.00  0.41  0.00  0.50  0.00  0.00  0.00
  YS02001629YS02163301    1.00   0.09  0.00  0.00  0.91  0.00  0.00  0.00  0.00  0.00
  YS02001633YS02163601    1.00   0.00  0.01  0.00  0.99  0.00  0.00  0.00  0.13  0.00
  YS02001641YS02001644    1.00   0.00  0.00  0.00  0.99  0.00  0.00  0.00  0.00  0.00
  YS02001644YS02001647    1.00   0.00  0.09  0.00  0.91  0.00  0.00  0.00  0.00  0.00
  YS02001647YS02001649    1.00   0.00  0.09  0.00  0.62  0.29  0.00  0.00  0.56  0.00
  YS02001649YS02001757    1.00   0.00  0.00  0.00  0.70  0.30  0.00  0.00  0.44  0.00
  YS02001652YS02001649    1.00   0.00  0.00  0.00  0.99  0.01  0.00  0.00  0.70  0.00
  YS02001655YS02001652    1.00   0.00  0.00  0.00  0.43  0.02  0.00  0.55  0.07  0.00
  YS02001658YS02001655    1.00   0.00  0.09  0.00  0.67  0.24  0.00  0.00  0.69  0.00
  YS02001661YS02001658    1.00   0.09  0.00  0.00  0.48  0.43  0.00  0.00  0.75  0.00
  YS02001664YS02001661    1.00   0.09  0.00  0.00  0.57  0.34  0.00  0.00  0.87  0.00
  YS02001745YS02001748    1.00   0.00  0.00  0.00  0.23  0.02  0.00  0.75  0.11  0.00
  YS02001748YS02001751    1.00   0.00  0.00  0.00  0.77  0.23  0.00  0.00  0.78  0.00
  YS02001751YS02001754    1.00   0.00  0.00  0.00  0.37  0.01  0.00  0.61  0.03  0.00
  YS02001754YS02001757    1.00   0.00  0.00  0.00  1.00  0.00  0.00  0.00  0.78  0.00
  YS02001757CaochengTiaoxuchi    1.00   0.00  0.00  0.00  0.95  0.05  0.00  0.00  0.77  0.00
  YS02001759YS02001757    1.00   0.00  0.00  0.00  1.00  0.00  0.00  0.00  0.61  0.00
  YS02001762YS02001759    1.00   0.00  0.00  0.00  1.00  0.00  0.00  0.00  0.01  0.00
  YS02001765YS02001762    1.00   0.00  0.00  0.00  1.00  0.00  0.00  0.00  0.70  0.00
  YS02001767YS02001765    1.00   0.00  0.00  0.00  1.00  0.00  0.00  0.00  0.00  0.00
  YS02001770YS02001767    1.00   0.00  0.00  0.00  1.00  0.00  0.00  0.00  0.00  0.00
  YS02001774YS02001770    1.00   0.00  0.09  0.00  0.81  0.00  0.10  0.00  0.00  0.00
  YS02001779YS02001774    1.00   0.00  0.00  0.00  1.00  0.00  0.00  0.00  0.74  0.00
  YS02001783YS02001784    1.00   0.00  0.09  0.00  0.91  0.00  0.00  0.00  0.55  0.00
  YS02001784YS02001785    1.00   0.00  0.00  0.00  1.00  0.00  0.00  0.00  0.13  0.00
  YS02001786YS02001788    1.00   0.00  0.00  0.00  0.59  0.41  0.00  0.00  0.00  0.00
  YS02001788YS02001790    1.00   0.00  0.00  0.00  0.12  0.88  0.00  0.00  0.76  0.00
  YS02001790YS02001791    1.00   0.00  0.00  0.00  0.01  0.99  0.00  0.00  0.19  0.00
  YS02001791YS02001793    1.00   0.00  0.00  0.00  0.00  1.00  0.00  0.00  0.00  0.00
  YS02001793JiankangQianchi    1.00   0.00  0.00  0.00  0.97  0.03  0.00  0.00  0.98  0.00
  YS02001882YS02001884    1.00   0.09  0.00  0.00  0.91  0.00  0.00  0.00  0.00  0.00
  YS02001884YS02001887    1.00   0.06  0.03  0.00  0.92  0.00  0.00  0.00  0.00  0.00
  YS02001887YS02001890    1.00   0.00  0.00  0.00  0.96  0.00  0.03  0.00  0.00  0.00
  YS02001890YS02001895    1.00   0.00  0.09  0.00  0.91  0.00  0.00  0.00  0.00  0.00
  YS02001895YS02001898    1.00   0.09  0.00  0.00  0.90  0.00  0.00  0.00  0.00  0.00
  YS02001898YS02001901    1.00   0.09  0.00  0.00  0.91  0.00  0.00  0.00  0.00  0.00
  YS02001901YS02001904    1.00   0.09  0.00  0.00  0.91  0.00  0.00  0.00  0.00  0.00
  YS02001904YS02001907    1.00   0.00  0.09  0.00  0.91  0.00  0.00  0.00  0.00  0.00
  YS02001907YS02006553    1.00   0.00  0.02  0.00  0.97  0.00  0.00  0.00  0.00  0.00
  YS02001910YS02001907    1.00   0.00  0.00  0.00  0.97  0.00  0.00  0.03  0.10  0.00
  YS02001915YS02001910    1.00   0.00  0.00  0.00  0.98  0.02  0.00  0.00  0.11  0.00
  YS02001918YS02001915    1.00   0.00  0.00  0.00  0.97  0.02  0.00  0.00  0.70  0.00
  YS02001920YS02001918    1.00   0.00  0.00  0.00  1.00  0.00  0.00  0.00  0.00  0.00
  YS02001923YS02001920    1.00   0.00  0.00  0.00  1.00  0.00  0.00  0.00  0.90  0.00
  YS02001926YS02001923    1.00   0.00  0.06  0.00  0.12  0.00  0.82  0.00  0.00  0.00
  YS02001929YS02001926    1.00   0.00  0.09  0.00  0.91  0.00  0.00  0.00  0.84  0.00
  YS02006553YS02006556    1.00   0.01  0.00  0.00  0.99  0.00  0.00  0.00  0.03  0.00
  YS02006556YS02006558    1.00   0.00  0.00  0.00  1.00  0.00  0.00  0.00  0.00  0.00
  YS02006558YS02006561    1.00   0.09  0.00  0.00  0.08  0.83  0.00  0.00  0.19  0.00
  YS02006561YS02001783    1.00   0.09  0.00  0.00  0.22  0.68  0.00  0.00  0.67  0.00
  YS02163301YS02001633    1.00   0.00  0.09  0.00  0.91  0.00  0.00  0.00  0.00  0.00
  YS02163601YS02164001    1.00   0.00  0.07  0.00  0.93  0.00  0.00  0.00  0.00  0.00
  YS02164001YS02001641    1.00   0.01  0.06  0.00  0.93  0.00  0.00  0.00  0.05  0.00
  YSB1154YSB6556          1.00   0.09  0.00  0.00  0.91  0.00  0.00  0.00  0.01  0.00
  YSB1171HS02004479       1.00   0.04  0.00  0.00  0.95  0.00  0.00  0.01  0.09  0.00
  YSB1174YSB1171          1.00   0.05  0.02  0.00  0.93  0.00  0.00  0.00  0.00  0.00
  YSB6556YSB1171          1.00   0.04  0.04  0.00  0.91  0.00  0.00  0.00  0.00  0.00
  
  
  *************************
  Conduit Surcharge Summary
  *************************
  
  ----------------------------------------------------------------------------
                                                           Hours        Hours 
                         --------- Hours Full --------   Above Full   Capacity
  Conduit                Both Ends  Upstream  Dnstream   Normal Flow   Limited
  ----------------------------------------------------------------------------
  HS02004480HS02004478        0.01      0.01      0.01      1.83         0.01
  HS02004785HS02004788        0.01      0.01      0.01      1.30         0.01
  HS02004817HS02004807        0.01      0.01      0.95      0.01         0.01
  HS02004817HS02004824        0.01      0.01      0.95      0.01         0.01
  HS02004876HS02004881        0.01      0.01      0.01      1.31         0.01
  HS02004881HS02006253        0.01      0.01      2.04      0.01         0.01
  WS02003072WS02003073        0.01      0.01      0.01      2.36         0.01
  WS02004401WS02004402        1.84      1.84      1.88      1.41         1.40
  WS02004402WS02004403        1.88      1.88      1.89      1.83         1.82
  WS02004403WS02004404        1.89      1.89      1.94      0.01         0.01
  WS02004404WS02004405        1.93      1.94      1.93      2.99         1.93
  WS02004405WS02004406        1.91      1.93      1.91      2.12         1.90
  WS02004406WS02004407        0.01      0.01      1.91      0.01         0.01
  WS02004407WS02004409        0.01      0.01      0.62      0.01         0.01
  WS02004409WS02004410        0.51      0.62      0.51      1.71         0.51
  WS02004410WS02004411        0.11      0.51      0.11      1.78         0.11
  WS02004411WS02004412        0.01      0.11      0.01      1.82         0.01
  WS02004412WS02004413        0.01      0.01      1.22      0.01         0.01
  WS02004413WS02003067        0.01      0.01      1.22      0.01         0.01
  WS02006109WS02006110        2.11      2.11      2.24      2.11         0.01
  WS02006110WS02006113        1.16      1.16      2.23      0.01         0.01
  WS02006111WS02006112        1.12      1.12      2.31      0.01         0.01
  WS02006112WS02006115        1.72      1.72      2.14      0.01         0.01
  WS02006113WS02006111        1.14      1.16      1.14      1.34         1.14
  WS02006115WS02006116        1.73      1.73      1.74      1.71         1.68
  WS02006116WS02004401        1.83      1.83      1.84      1.80         1.77
  WS02006228WS02006109        2.22      2.24      2.22      2.53         2.22
  WS02006229WS02006228        2.21      2.22      2.21      2.34         2.21
  WS02006230WS02006229        2.26      2.26      2.26      2.98         1.65
  WS02006231WS02006230        1.95      1.95      2.10      2.65         0.45
  WS02006232WS02006231        2.09      2.09      2.15      0.01         0.01
  WS02006234WS02006232        2.11      2.11      2.15      0.01         0.01
  WS02006235WS02006234        2.10      2.10      2.11      2.23         0.39
  WS02006238WS02006235        2.12      2.12      2.13      0.01         0.09
  WS02006239WS02006238        2.12      2.12      2.12      0.28         0.21
  WS02006240WS02006239        2.10      2.11      2.11      0.28         0.20
  WS02006242WS02006240        2.10      2.10      2.11      0.67         0.20
  WS02006243WS02006242        2.09      2.09      2.11      0.01         0.01
  WS02006245WS02006243        2.08      2.08      2.08      0.28         0.18
  WS02006247WS02006245        2.08      2.08      2.08      1.78         1.07
  WS02006248WS02006247        2.07      2.07      2.08      0.01         0.01
  WS02006249WS02006248        2.07      2.07      2.07      0.97         0.01
  WS02006251WS02006249        2.06      2.06      2.07      2.16         2.04
  WS02006252WS02006251        2.17      2.17      2.18      2.14         0.01
  WS02006253WS02006251        2.06      2.06      2.06      0.01         0.01
  WS02006256WS02006235        2.76      2.77      4.44      2.14         0.01
  WS02006280WS02006229        0.01      0.01      0.31      0.01         0.01
  YS02001580YS02001583        0.63      0.63      0.80      0.01         0.01
  YS02001583YS02001586        0.65      0.65      1.00      0.01         0.01
  YS02001586YS02001590        1.01      1.01      1.14      0.01         0.01
  YS02001590YS02001593        1.15      1.15      1.18      1.21         0.01
  YS02001593YS02001596        1.17      1.17      1.33      0.01         0.01
  YS02001596YS02001600        1.38      1.38      1.51      0.01         0.01
  YS02001600YS02001601        1.63      1.63      1.96      0.01         0.01
  YS02001601YS02001602        1.89      1.89      1.99      1.56         0.01
  YS02001602YS02001605        1.85      1.85      1.89      2.51         0.01
  YS02001605YS02001607        1.81      1.85      1.81      1.94         1.81
  YS02001607YS02001610        1.14      1.14      1.19      0.01         0.01
  YS02001610YS02001613        1.13      1.13      1.19      0.01         0.01
  YS02001613YS02001616        1.05      1.05      1.13      0.01         0.01
  YS02001616YS02001619        1.02      1.02      1.05      0.01         0.01
  YS02001619YS02001622        1.02      1.02      1.02      1.14         0.92
  YS02001622YS02001625        1.02      1.02      1.30      0.01         0.01
  YS02001625YS02001629        0.92      0.92      1.30      0.01         0.01
  YS02001629YS02163301        1.30      1.30      1.31      0.19         0.36
  YS02001633YS02163601        1.33      1.33      1.36      0.93         0.86
  YS02001641YS02001644        1.23      1.26      1.23      1.99         1.22
  YS02001644YS02001647        0.81      0.81      1.23      0.01         0.01
  YS02001647YS02001649        0.81      0.81      1.04      0.01         0.01
  YS02001649YS02001757        1.04      1.04      1.12      0.25         0.19
  YS02001652YS02001649        0.73      0.73      1.04      0.01         0.01
  YS02001655YS02001652        0.15      0.15      0.69      0.01         0.01
  YS02001658YS02001655        0.01      0.01      0.15      0.01         0.01
  YS02001751YS02001754        0.01      0.01      0.44      0.01         0.01
  YS02001754YS02001757        0.55      0.55      1.12      0.01         0.01
  YS02001757CaochengTiaoxuchi        1.12      1.12      1.72      0.25         0.19
  YS02001759YS02001757        0.98      0.98      1.12      0.01         0.01
  YS02001762YS02001759        0.91      0.91      0.98      0.01         0.01
  YS02001765YS02001762        0.83      0.83      0.91      0.01         0.01
  YS02001767YS02001765        0.78      0.78      0.83      0.01         0.01
  YS02001770YS02001767        0.78      0.78      0.78      0.73         0.39
  YS02001774YS02001770        0.74      0.74      0.88      0.01         0.01
  YS02001779YS02001774        0.41      0.41      0.88      0.01         0.01
  YS02001783YS02001784        0.57      0.63      0.57      0.89         0.57
  YS02001784YS02001785        0.23      0.57      0.23      1.34         0.23
  YS02001786YS02001788        0.01      0.23      0.01      1.08         0.01
  YS02001790YS02001791        0.01      0.01      0.01      0.52         0.01
  YS02001793JiankangQianchi        0.01      0.01      7.69      0.01         0.01
  YS02001882YS02001884        0.46      0.46      0.50      0.01         0.01
  YS02001884YS02001887        0.57      0.57      0.59      0.01         0.01
  YS02001887YS02001890        0.63      0.63      0.66      0.01         0.01
  YS02001890YS02001895        0.42      0.42      0.69      0.01         0.01
  YS02001895YS02001898        0.39      0.39      0.42      0.01         0.01
  YS02001898YS02001901        0.43      0.43      0.57      0.01         0.01
  YS02001901YS02001904        0.54      0.54      0.57      0.01         0.01
  YS02001904YS02001907        0.54      0.54      1.04      0.01         0.01
  YS02001907YS02006553        1.35      1.35      1.43      0.01         0.01
  YS02001910YS02001907        0.69      0.69      0.99      0.01         0.01
  YS02001915YS02001910        0.47      0.47      0.69      0.01         0.01
  YS02001918YS02001915        0.18      0.18      0.47      0.01         0.01
  YS02001920YS02001918        0.18      0.18      0.22      0.01         0.01
  YS02001923YS02001920        0.01      0.01      0.22      0.01         0.01
  YS02006553YS02006556        0.84      0.84      1.04      0.01         0.01
  YS02006556YS02006558        0.92      0.92      1.08      0.01         0.01
  YS02006558YS02006561        0.29      0.83      0.29      1.26         0.29
  YS02006561YS02001783        0.08      0.08      0.63      0.01         0.01
  YS02163301YS02001633        1.31      1.31      1.35      0.01         0.01
  YS02163601YS02164001        1.26      1.26      1.36      0.20         0.01
  YS02164001YS02001641        1.26      1.26      1.26      1.35         1.25
  YSB1154YSB6556              0.01      0.01      0.04      0.01         0.01
  YSB1171HS02004479           0.01      0.01      0.07      0.01         0.01
  YSB1174YSB1171              0.01      0.01      0.82      0.01         0.01
  YSB6556YSB1171              0.01      0.01      1.05      0.01         0.01
  
  
  ***************
  Pumping Summary
  ***************
  
  ---------------------------------------------------------------------------------------------------------
                                                  Min       Avg       Max     Total     Power    % Time Off
                        Percent   Number of      Flow      Flow      Flow    Volume     Usage    Pump Curve
  Pump                 Utilized   Start-Ups       LPS       LPS       LPS  10^6 ltr     Kw-hr    Low   High
  ---------------------------------------------------------------------------------------------------------
  CC-R1                   25.75           2      0.00    683.00    683.00     5.064     93.82    0.0   20.6
  CC-R2                   24.30           2      0.00    683.00    683.00     4.779     88.55    0.0   21.8
  CC-S1                   27.73           2      0.00    200.00    200.00     1.597      9.51    0.0    0.0
  CC-S2                   26.79           2      0.00    200.00    200.00     1.543      9.16    0.0    0.0
  JK-R1                    9.22           7      0.00   1000.00   1000.00     2.656     25.23    0.0    0.0
  JK-R2                    0.16           1      0.00   1000.00   1000.00     0.047      0.36    0.0    0.0
  JK-S                    26.69           3      0.00    300.00    300.00     2.306     38.06    0.0    0.0
  XR-1                    97.91           2      0.00     95.00     95.00     2.679      9.62    0.0    0.0
  XR-2                    93.94           2      0.00     95.00     95.00     2.570      8.78    0.0    0.0
  XR-3                     0.00           1      0.00     95.00     95.00     0.000      0.00    0.0    0.0
  XR-4                     0.00           1      0.00     95.00     95.00     0.000      0.00    0.0    0.0
  

  Analysis begun on:  Thu Jul 20 11:19:10 2023
  Analysis ended on:  Thu Jul 20 11:19:15 2023
  Total elapsed time: 00:00:05