
  OWA STORM WATER MANAGEMENT MODEL - VERSION v5.1.14 (OWA 2022-07-31)
  --------------------------------------------------------------

  WARNING 04: minimum elevation drop used for Conduit WS02004404WS02004405
  WARNING 03: negative offset ignored for Link YS02001904YS02001907
  
  *********************************************************
  NOTE: The summary statistics displayed in this report are
  based on results found at every computational time step,  
  not just on results from each reporting time step.
  *********************************************************
  
  ****************
  Analysis Options
  ****************
  Flow Units ............... LPS
  Process Models:
    Rainfall/Runoff ........ YES
    RDII ................... NO
    Snowmelt ............... NO
    Groundwater ............ NO
    Flow Routing ........... YES
    Ponding Allowed ........ NO
    Water Quality .......... NO
  Infiltration Method ...... HORTON
  Flow Routing Method ...... DYNWAVE
  Surcharge Method ......... EXTRAN
  Starting Date ............ 08/28/2015 08:00:00
  Ending Date .............. 08/28/2015 16:00:00
  Antecedent Dry Days ...... 8.0
  Report Time Step ......... 00:01:00
  Wet Time Step ............ 00:01:00
  Dry Time Step ............ 00:01:00
  Routing Time Step ........ 30.00 sec
  Variable Time Step ....... YES
  Maximum Trials ........... 8
  Number of Threads ........ 4
  Head Tolerance ........... 0.001500 m
  
  
  **************************        Volume         Depth
  Runoff Quantity Continuity     hectare-m            mm
  **************************     ---------       -------
  Total Precipitation ......         2.491        41.115
  Evaporation Loss .........         0.000         0.000
  Infiltration Loss ........         0.239         3.953
  Surface Runoff ...........         2.190        36.159
  Final Storage ............         0.061         1.008
  Continuity Error (%) .....        -0.011
  
  
  **************************        Volume        Volume
  Flow Routing Continuity        hectare-m      10^6 ltr
  **************************     ---------     ---------
  Dry Weather Inflow .......         0.630         6.296
  Wet Weather Inflow .......         2.190        21.897
  Groundwater Inflow .......         0.000         0.000
  RDII Inflow ..............         0.000         0.000
  External Inflow ..........         0.105         1.045
  External Outflow .........         2.467        24.672
  Flooding Loss ............         0.379         3.787
  Evaporation Loss .........         0.000         0.000
  Exfiltration Loss ........         0.000         0.000
  Initial Stored Volume ....         0.303         3.031
  Final Stored Volume ......         0.386         3.860
  Continuity Error (%) .....        -0.157
  
  
  *************************
  Highest Continuity Errors
  *************************
  Node HS02004842 (7.71%)
  Node YS02001884 (3.70%)
  Node YS02001583 (-2.27%)
  Node YS02001774 (2.23%)
  Node HS02004817 (1.52%)
  
  
  ***************************
  Time-Step Critical Elements
  ***************************
  Link WS02006280WS02006229 (55.49%)
  Link YS02006556YS02006558 (12.56%)
  Link WS02006238WS02006235 (9.68%)
  Link WS02004404WS02004405 (2.99%)
  Link WS02006252WS02006251 (2.66%)
  
  
  ********************************
  Highest Flow Instability Indexes
  ********************************
  Link YS02006558YS02006561 (22)
  Link YS02001790YS02001791 (16)
  Link YS02006556YS02006558 (15)
  Link WS02006113WS02006111 (13)
  Link WS02006229WS02006228 (9)
  
  
  *************************
  Routing Time Step Summary
  *************************
  Minimum Time Step           :     0.00 sec
  Average Time Step           :     2.59 sec
  Maximum Time Step           :     6.46 sec
  Percent in Steady State     :    -0.00
  Average Iterations per Step :     2.61
  Percent Not Converging      :     5.15
  
  
  ***************************
  Subcatchment Runoff Summary
  ***************************
  
  ------------------------------------------------------------------------------------------------------------------------------
                            Total      Total      Total      Total     Imperv       Perv      Total       Total     Peak  Runoff
                           Precip      Runon       Evap      Infil     Runoff     Runoff     Runoff      Runoff   Runoff   Coeff
  Subcatchment                 mm         mm         mm         mm         mm         mm         mm    10^6 ltr      LPS
  ------------------------------------------------------------------------------------------------------------------------------
  sub0                      26.57       0.00       0.00       1.03      23.45       0.83      24.27        0.02     3.92   0.914
  sub1                      26.57       0.00       0.00       1.74      22.39       1.18      23.57        0.16    27.47   0.887
  sub10                     26.57       0.00       0.00       1.23      23.15       0.89      24.04        0.27    47.17   0.905
  sub11                     26.57       0.00       0.00       1.22      23.17       0.91      24.08        0.28    52.00   0.906
  sub12                     26.57       0.00       0.00       1.98      21.93       1.47      23.40        0.20    38.94   0.881
  sub14                     26.57       0.00       0.00       1.39      22.91       1.00      23.91        0.23    41.28   0.900
  sub15                     26.57       0.00       0.00       5.19      17.62       2.78      20.39        0.35    58.15   0.768
  sub16                     26.57       0.00       0.00       5.48      16.88       3.29      20.17        0.21    35.60   0.759
  sub17                     26.57       0.00       0.00       5.33      17.13       3.17      20.30        0.17    29.34   0.764
  sub2                      26.57       0.00       0.00       7.01      15.83       2.82      18.65        0.17    27.20   0.702
  sub22                     26.57       0.00       0.00       7.72      14.36       3.71      18.06        1.14   179.66   0.680
  sub23                     26.57       0.00       0.00       6.41      15.87       3.42      19.28        0.92   149.90   0.726
  sub3                      26.57       0.00       0.00       7.34      15.79       2.49      18.28        0.41    62.22   0.688
  sub4                      26.57       0.00       0.00       1.88      22.23       1.04      23.27        0.49    75.33   0.876
  sub5                      26.57       0.00       0.00       1.08      23.39       0.78      24.18        0.27    48.29   0.910
  sub60                     53.13       0.00       0.00       1.91      45.55       4.46      50.01        0.66   130.98   0.941
  sub61                     53.14       0.00       0.00       2.77      42.96       6.26      49.22        0.90   178.55   0.926
  sub62                     53.14       0.00       0.00       1.27      47.59       2.98      50.57        1.39   268.34   0.952
  sub63                     53.14       0.00       0.00       5.09      36.75      10.32      47.07        1.07   197.10   0.886
  sub64                     53.13       0.00       0.00       2.58      43.95       5.39      49.34        1.19   219.13   0.929
  sub65                     53.13       0.00       0.00       2.23      44.97       4.68      49.64        1.37   248.84   0.934
  sub66                     53.14       0.00       0.00       6.11      36.64       9.30      45.94        2.14   345.44   0.865
  sub67                     53.14       0.00       0.00       1.22      47.63       3.03      50.66        0.94   191.52   0.953
  sub68                     53.13       0.00       0.00       2.30      44.50       5.14      49.64        1.37   266.42   0.934
  sub69                     53.14       0.00       0.00       2.06      45.05       5.91      50.95        1.89   342.07   0.959
  sub7                      26.57       0.00       0.00       1.37      22.92       1.02      23.94        0.08    15.17   0.901
  sub70                     53.13       0.00       0.00       6.51      34.90      11.55      46.45        1.34   205.85   0.874
  sub71                     53.14       0.00       0.00       1.31      47.55       2.94      50.49        1.32   243.80   0.950
  sub72                     53.14       0.00       0.00       1.16      48.00       2.56      50.56        0.70   120.82   0.952
  sub8                      26.57       0.00       0.00       1.38      22.91       1.01      23.92        0.15    28.03   0.900
  sub9                      26.57       0.00       0.00       1.39      22.91       1.01      23.92        0.12    20.96   0.900
  
  
  ******************
  Node Depth Summary
  ******************
  
  ---------------------------------------------------------------------------------
                                 Average  Maximum  Maximum  Time of Max    Reported
                                   Depth    Depth      HGL   Occurrence   Max Depth
  Node                 Type       Meters   Meters   Meters  days hr:min      Meters
  ---------------------------------------------------------------------------------
  HS02004478           JUNCTION     0.14     0.29     9.52     0  01:46        0.29
  HS02004479           JUNCTION     0.22     0.43     9.63     0  01:46        0.43
  HS02004480           JUNCTION     0.18     0.39     9.63     0  01:46        0.39
  HS02004770           JUNCTION     0.20     0.37    10.20     0  01:46        0.37
  HS02004777           JUNCTION     0.22     0.39    10.19     0  01:46        0.39
  HS02004785           JUNCTION     0.11     0.25    10.15     0  01:46        0.25
  HS02004788           JUNCTION     0.07     0.16    10.06     0  01:46        0.16
  HS02004792           JUNCTION     0.10     0.22     9.75     0  01:46        0.22
  HS02004799           JUNCTION     0.24     0.48     9.69     0  01:46        0.48
  HS02004802           JUNCTION     0.24     0.42     9.54     0  01:46        0.42
  HS02004807           JUNCTION     0.21     0.39     9.56     0  01:47        0.39
  HS02004817           JUNCTION     0.51     0.72     9.56     0  01:46        0.72
  HS02004824           JUNCTION     0.06     0.15     9.55     0  01:46        0.15
  HS02004830           JUNCTION     0.06     0.12     9.59     0  01:47        0.12
  HS02004837           JUNCTION     0.05     0.09     9.67     0  01:45        0.09
  HS02004842           JUNCTION     0.35     0.41     9.68     0  01:45        0.41
  HS02004848           JUNCTION     0.03     0.07     9.68     0  01:46        0.07
  HS02004852           JUNCTION     0.03     0.08     9.59     0  01:46        0.08
  HS02004856           JUNCTION     0.10     0.16     9.58     0  01:46        0.16
  HS02004862           JUNCTION     0.05     0.12     9.50     0  01:46        0.12
  HS02004870           JUNCTION     0.04     0.10     9.39     0  01:45        0.10
  HS02004876           JUNCTION     0.08     0.17     9.20     0  01:45        0.17
  HS02004881           JUNCTION     0.02     0.07     9.10     0  01:27        0.06
  HS02004901           JUNCTION     0.21     0.38    10.20     0  01:45        0.38
  WS02001211           JUNCTION     0.64     0.72     5.56     0  01:51        0.72
  WS02001212           JUNCTION     0.38     0.48     5.54     0  01:50        0.48
  WS02001213           JUNCTION     0.60     0.77     5.53     0  01:49        0.77
  WS02003059           JUNCTION     0.66     0.84     5.53     0  01:49        0.84
  WS02003060           JUNCTION     0.39     0.58     5.52     0  01:48        0.58
  WS02003066           JUNCTION     0.23     0.39     5.94     0  01:47        0.39
  WS02003067           JUNCTION     0.56     0.82     6.14     0  01:47        0.82
  WS02003069           JUNCTION     0.43     0.66     5.25     0  01:49        0.66
  WS02003072           JUNCTION     0.49     0.71     5.08     0  01:49        0.71
  WS02003073           JUNCTION     0.30     0.44     4.51     0  01:50        0.44
  WS02004138           JUNCTION     0.13     0.14     7.39     0  00:29        0.14
  WS02004139           JUNCTION     0.57     0.66     5.57     0  01:51        0.66
  WS02004401           JUNCTION     0.76     1.51     7.51     0  01:27        1.27
  WS02004402           JUNCTION     0.77     1.45     7.41     0  01:27        1.26
  WS02004403           JUNCTION     0.78     1.37     7.30     0  01:28        1.23
  WS02004404           JUNCTION     0.84     1.40     7.25     0  01:28        1.27
  WS02004405           JUNCTION     0.83     1.38     7.23     0  01:27        1.24
  WS02004406           JUNCTION     0.82     1.44     7.27     0  01:27        1.18
  WS02004407           JUNCTION     0.22     0.40     6.72     0  01:30        0.40
  WS02004409           JUNCTION     0.52     0.98     6.75     0  01:47        0.98
  WS02004410           JUNCTION     0.54     0.96     6.68     0  01:47        0.96
  WS02004411           JUNCTION     0.55     0.94     6.62     0  01:47        0.94
  WS02004412           JUNCTION     0.55     0.91     6.55     0  01:47        0.91
  WS02004413           JUNCTION     0.70     1.03     6.50     0  01:47        1.03
  WS02006109           JUNCTION     0.93     1.78     8.40     0  01:28        1.73
  WS02006110           JUNCTION     0.86     1.76     8.35     0  01:28        1.53
  WS02006111           JUNCTION     0.40     1.55     8.26     0  01:28        0.95
  WS02006112           JUNCTION     0.97     1.92     7.80     0  01:28        1.61
  WS02006113           JUNCTION     0.44     1.33     8.23     0  01:28        1.00
  WS02006115           JUNCTION     0.68     2.02     8.16     0  01:27        1.27
  WS02006116           JUNCTION     0.75     1.83     7.87     0  01:27        1.30
  WS02006228           JUNCTION     0.98     1.94     8.59     0  01:29        1.91
  WS02006229           JUNCTION     0.99     2.02     8.71     0  01:29        2.00
  WS02006230           JUNCTION     0.96     1.98     8.73     0  01:29        1.96
  WS02006231           JUNCTION     0.70     1.62     8.74     0  01:29        1.60
  WS02006232           JUNCTION     0.80     1.71     8.75     0  01:29        1.70
  WS02006234           JUNCTION     0.71     1.60     8.76     0  01:29        1.59
  WS02006235           JUNCTION     0.73     1.61     8.77     0  01:29        1.59
  WS02006238           JUNCTION     0.75     1.62     8.77     0  01:29        1.61
  WS02006239           JUNCTION     0.70     1.68     8.89     0  01:25        1.54
  WS02006240           JUNCTION     0.66     1.65     8.94     0  01:25        1.45
  WS02006242           JUNCTION     0.70     1.55     8.82     0  01:25        1.46
  WS02006243           JUNCTION     0.60     1.48     8.90     0  01:25        1.29
  WS02006245           JUNCTION     0.58     1.56     9.04     0  01:25        1.22
  WS02006247           JUNCTION     0.58     1.47     8.97     0  01:26        1.20
  WS02006248           JUNCTION     0.53     1.10     8.69     0  01:26        1.10
  WS02006249           JUNCTION     0.54     1.09     8.69     0  01:26        1.09
  WS02006251           JUNCTION     0.56     1.80     9.47     0  01:27        1.64
  WS02006252           JUNCTION     0.35     1.50     9.74     0  00:00        1.50
  WS02006253           JUNCTION     0.60     2.27     9.91     0  01:27        1.24
  WS02006256           JUNCTION     1.33     2.35     9.28     0  00:00        2.35
  WS02006280           JUNCTION     0.14     0.32     8.59     0  01:28        0.31
  WS02006284           JUNCTION     0.45     0.66     9.06     0  01:47        0.66
  WS02006287           JUNCTION     0.20     0.41     9.36     0  01:46        0.41
  WSF200               JUNCTION     0.23     0.43     5.66     0  01:48        0.43
  YS02001580           JUNCTION     0.08     0.55     9.09     0  01:31        0.53
  YS02001583           JUNCTION     0.11     0.59     9.08     0  01:31        0.58
  YS02001586           JUNCTION     0.23     0.91     9.08     0  01:31        0.91
  YS02001590           JUNCTION     0.37     1.19     9.05     0  01:35        1.19
  YS02001593           JUNCTION     0.30     1.16     9.03     0  01:35        1.16
  YS02001596           JUNCTION     0.48     1.57     8.99     0  01:35        1.57
  YS02001600           JUNCTION     0.60     1.82     8.95     0  01:35        1.82
  YS02001601           JUNCTION     0.81     2.06     8.90     0  01:30        2.06
  YS02001602           JUNCTION     0.69     1.83     8.73     0  01:50        1.83
  YS02001605           JUNCTION     0.61     1.63     8.54     0  01:50        1.63
  YS02001607           JUNCTION     0.53     1.32     8.16     0  01:50        1.32
  YS02001610           JUNCTION     0.57     1.35     8.15     0  01:50        1.35
  YS02001613           JUNCTION     0.53     1.29     8.13     0  01:50        1.29
  YS02001616           JUNCTION     0.45     1.20     8.11     0  01:50        1.19
  YS02001619           JUNCTION     0.43     1.17     8.10     0  01:50        1.16
  YS02001622           JUNCTION     0.42     1.16     8.06     0  01:50        1.15
  YS02001625           JUNCTION     0.68     1.40     8.00     0  01:50        1.39
  YS02001629           JUNCTION     0.57     1.40     7.95     0  01:51        1.40
  YS02001633           JUNCTION     0.64     1.43     7.89     0  01:50        1.42
  YS02001641           JUNCTION     0.59     1.27     7.71     0  01:50        1.26
  YS02001644           JUNCTION     0.58     1.22     7.65     0  01:50        1.20
  YS02001647           JUNCTION     0.34     0.95     7.56     0  01:50        0.94
  YS02001649           JUNCTION     0.40     1.10     7.49     0  01:50        1.09
  YS02001652           JUNCTION     0.27     0.89     7.49     0  01:51        0.88
  YS02001655           JUNCTION     0.17     0.64     7.49     0  01:50        0.63
  YS02001658           JUNCTION     0.09     0.34     7.48     0  01:50        0.34
  YS02001661           JUNCTION     0.14     0.26     7.66     0  01:28        0.26
  YS02001664           JUNCTION     0.07     0.17     8.09     0  01:28        0.17
  YS02001745           JUNCTION     0.06     0.15     7.67     0  01:26        0.15
  YS02001748           JUNCTION     0.09     0.32     7.40     0  01:51        0.32
  YS02001751           JUNCTION     0.13     0.52     7.40     0  01:51        0.52
  YS02001754           JUNCTION     0.22     0.79     7.40     0  01:51        0.79
  YS02001757           JUNCTION     0.42     1.13     7.40     0  01:50        1.13
  YS02001759           JUNCTION     0.35     1.04     7.40     0  01:50        1.04
  YS02001762           JUNCTION     0.33     1.01     7.41     0  01:50        1.00
  YS02001765           JUNCTION     0.31     0.96     7.41     0  01:50        0.95
  YS02001767           JUNCTION     0.30     0.92     7.41     0  01:50        0.91
  YS02001770           JUNCTION     0.31     0.91     7.41     0  01:50        0.91
  YS02001774           JUNCTION     0.37     0.99     7.41     0  01:50        0.98
  YS02001779           JUNCTION     0.19     0.73     7.41     0  01:50        0.73
  YS02001783           JUNCTION     0.30     0.71     6.85     0  01:34        0.71
  YS02001784           JUNCTION     0.32     0.71     6.78     0  01:34        0.70
  YS02001786           JUNCTION     0.27     0.58     6.61     0  01:35        0.58
  YS02001788           JUNCTION     0.20     0.46     6.44     0  01:35        0.46
  YS02001790           JUNCTION     0.25     0.55     6.20     0  01:35        0.55
  YS02001791           JUNCTION     0.16     0.33     5.80     0  01:37        0.33
  YS02001793           JUNCTION     0.08     0.17     5.00     0  01:35        0.17
  YS02001882           JUNCTION     0.33     0.74     7.45     0  01:33        0.74
  YS02001884           JUNCTION     0.42     0.83     7.45     0  01:33        0.83
  YS02001887           JUNCTION     0.50     0.91     7.45     0  01:33        0.91
  YS02001890           JUNCTION     0.53     0.94     7.45     0  01:34        0.94
  YS02001895           JUNCTION     0.30     0.70     7.45     0  01:33        0.70
  YS02001898           JUNCTION     0.31     0.71     7.45     0  01:34        0.71
  YS02001901           JUNCTION     0.42     0.84     7.45     0  01:33        0.84
  YS02001904           JUNCTION     0.40     0.81     7.44     0  01:31        0.81
  YS02001907           JUNCTION     0.72     1.15     7.44     0  01:33        1.15
  YS02001910           JUNCTION     0.52     0.96     7.46     0  01:31        0.95
  YS02001915           JUNCTION     0.32     0.73     7.45     0  01:34        0.73
  YS02001918           JUNCTION     0.13     0.38     7.44     0  01:35        0.38
  YS02001920           JUNCTION     0.21     0.44     7.45     0  01:33        0.44
  YS02001923           JUNCTION     0.07     0.17     7.43     0  01:36        0.17
  YS02001926           JUNCTION     0.15     0.29     7.74     0  01:31        0.29
  YS02001929           JUNCTION     0.07     0.16     7.86     0  01:31        0.16
  YS02006553           JUNCTION     0.72     1.15     7.43     0  01:34        1.15
  YS02006556           JUNCTION     0.69     1.11     7.42     0  01:34        1.11
  YS02006558           JUNCTION     0.74     1.15     7.42     0  01:35        1.15
  YS02006561           JUNCTION     0.17     0.39     7.05     0  01:33        0.39
  YS02163301           JUNCTION     0.59     1.40     7.92     0  01:50        1.40
  YS02163601           JUNCTION     0.66     1.40     7.80     0  01:50        1.39
  YS02164001           JUNCTION     0.59     1.29     7.75     0  01:50        1.28
  YSB1154              JUNCTION     0.35     0.58     9.64     0  01:46        0.58
  YSB1171              JUNCTION     0.50     0.73     9.64     0  01:46        0.73
  YSB1174              JUNCTION     0.31     0.53     9.64     0  01:46        0.53
  YSB6556              JUNCTION     0.25     0.47     9.64     0  01:46        0.47
  CC-1                 OUTFALL      0.00     0.00     0.00     0  00:00        0.00
  CC-2                 OUTFALL      0.00     0.00     0.00     0  00:00        0.00
  JK-1                 OUTFALL      0.00     0.00     0.00     0  00:00        0.00
  JK-2                 OUTFALL      0.00     0.00     0.00     0  00:00        0.00
  WSC                  OUTFALL      0.30     0.44     1.11     0  01:50        0.44
  CC-storage           STORAGE      0.88     1.41     6.91     0  01:57        1.41
  JK-storage           STORAGE      2.26     4.21     5.01     0  01:34        4.21
  XR-storage           STORAGE      7.83     9.26     7.26     0  08:00        9.26
  
  
  *******************
  Node Inflow Summary
  *******************
  
  -------------------------------------------------------------------------------------------------
                                  Maximum  Maximum                  Lateral       Total        Flow
                                  Lateral    Total  Time of Max      Inflow      Inflow     Balance
                                   Inflow   Inflow   Occurrence      Volume      Volume       Error
  Node                 Type           LPS      LPS  days hr:min    10^6 ltr    10^6 ltr     Percent
  -------------------------------------------------------------------------------------------------
  HS02004478           JUNCTION      0.00   743.28     0  01:46           0        4.72       0.006
  HS02004479           JUNCTION      0.00    86.17     0  01:31           0       0.487       0.153
  HS02004480           JUNCTION      0.00   547.45     0  01:46           0        3.37       0.022
  HS02004770           JUNCTION    149.90   185.32     0  01:45        0.92        1.13       0.273
  HS02004777           JUNCTION      0.03   185.05     0  01:45    0.000864        1.13       0.465
  HS02004785           JUNCTION      0.15   185.06     0  01:46     0.00432        1.13       0.045
  HS02004788           JUNCTION     59.82   244.54     0  01:46       0.399        1.52       0.026
  HS02004792           JUNCTION    179.94   423.97     0  01:46        1.15        2.67       0.015
  HS02004799           JUNCTION     41.28   463.77     0  01:46       0.228         2.9       0.115
  HS02004802           JUNCTION      0.00   196.20     0  01:47           0        1.36       0.283
  HS02004807           JUNCTION     52.00   196.18     0  01:47        0.28        1.36       0.325
  HS02004817           JUNCTION      0.60   148.00     0  01:48      0.0173         1.1       1.541
  HS02004824           JUNCTION     75.38   146.99     0  01:47       0.487        1.08       0.051
  HS02004830           JUNCTION      0.15    71.76     0  01:45     0.00432       0.594       0.209
  HS02004837           JUNCTION     53.52    71.65     0  01:45       0.448       0.604       0.135
  HS02004842           JUNCTION      0.00    20.85     0  02:15           0       0.169       8.353
  HS02004848           JUNCTION     62.22    62.22     0  01:46       0.411       0.411       0.013
  HS02004852           JUNCTION      0.00    43.36     0  01:46           0       0.256       0.023
  HS02004856           JUNCTION     20.96    63.54     0  01:45       0.115       0.371       0.391
  HS02004862           JUNCTION     27.40    90.90     0  01:46        0.18       0.549       0.031
  HS02004870           JUNCTION     28.03   117.73     0  01:45       0.153       0.701       0.016
  HS02004876           JUNCTION     27.47   145.04     0  01:45       0.157       0.858       0.062
  HS02004881           JUNCTION     15.17   159.28     0  01:45      0.0807       0.938       0.053
  HS02004901           JUNCTION     35.60    35.60     0  01:45       0.211       0.211       0.840
  WS02001211           JUNCTION      7.35   202.82     0  03:32       0.212        5.44       0.612
  WS02001212           JUNCTION      0.00   206.97     0  03:32           0        5.41       0.290
  WS02001213           JUNCTION      0.00   210.27     0  03:33           0        5.39       0.332
  WS02003059           JUNCTION      0.00   215.79     0  03:33           0        5.38       0.595
  WS02003060           JUNCTION     16.53  1165.41     0  01:48       0.476        13.5       0.107
  WS02003066           JUNCTION      0.00   952.27     0  01:47           0        7.71       0.018
  WS02003067           JUNCTION      0.00   952.24     0  01:47           0        7.71       0.056
  WS02003069           JUNCTION      0.32  1165.74     0  01:49     0.00922        13.5       0.113
  WS02003072           JUNCTION      0.00  1165.73     0  01:49           0        13.5       0.154
  WS02003073           JUNCTION      1.82  1167.55     0  01:50      0.0524        13.5       0.160
  WS02004138           JUNCTION      0.00   380.00     0  00:00           0        5.25       0.052
  WS02004139           JUNCTION      0.32   190.95     0  00:29     0.00924        5.26       0.508
  WS02004401           JUNCTION      0.00   968.52     0  01:30           0        7.82       0.131
  WS02004402           JUNCTION      0.00   968.65     0  01:30           0        7.81       0.133
  WS02004403           JUNCTION      0.00   970.08     0  01:30           0         7.8       0.130
  WS02004404           JUNCTION      0.16   970.57     0  01:30     0.00467        7.79       0.109
  WS02004405           JUNCTION      0.04   971.14     0  01:30      0.0011        7.78       0.159
  WS02004406           JUNCTION      0.00   971.56     0  01:30           0        7.77       0.270
  WS02004407           JUNCTION      0.00   971.99     0  01:30           0        7.75       0.018
  WS02004409           JUNCTION      0.00   969.04     0  01:30           0        7.75       0.039
  WS02004410           JUNCTION      0.00   952.23     0  01:47           0        7.74       0.061
  WS02004411           JUNCTION      0.00   952.21     0  01:47           0        7.74       0.076
  WS02004412           JUNCTION      0.00   952.20     0  01:47           0        7.73       0.100
  WS02004413           JUNCTION      0.00   952.23     0  01:47           0        7.73       0.180
  WS02006109           JUNCTION      1.23   959.49     0  01:28      0.0354        7.69       0.095
  WS02006110           JUNCTION      0.00   959.94     0  01:28           0        7.68       0.097
  WS02006111           JUNCTION      0.00   937.50     0  01:29           0        7.67       0.011
  WS02006112           JUNCTION     29.34   966.70     0  01:30       0.174        7.85       0.249
  WS02006113           JUNCTION      0.00   960.06     0  01:28           0        7.67       0.021
  WS02006115           JUNCTION      0.00   966.91     0  01:30           0        7.83       0.083
  WS02006116           JUNCTION      0.00   968.58     0  01:30           0        7.82       0.052
  WS02006228           JUNCTION      0.00   958.70     0  01:28           0        7.66       0.034
  WS02006229           JUNCTION      0.00   999.24     0  01:28           0         7.7       0.108
  WS02006230           JUNCTION     10.28   500.15     0  03:24       0.296        3.03       0.291
  WS02006231           JUNCTION      0.00   489.80     0  03:24           0        2.71      -0.199
  WS02006232           JUNCTION      0.00   489.60     0  03:24           0         2.7       0.219
  WS02006234           JUNCTION      0.00   488.97     0  03:24           0        2.67      -0.185
  WS02006235           JUNCTION      0.00   488.67     0  03:24           0        2.75       0.181
  WS02006238           JUNCTION      0.00   413.25     0  03:25           0        1.41      -0.250
  WS02006239           JUNCTION      0.00   413.41     0  03:25           0        1.37      -0.232
  WS02006240           JUNCTION      0.00   412.73     0  03:25           0        1.34      -0.065
  WS02006242           JUNCTION      0.00   413.37     0  03:25           0         1.3       0.024
  WS02006243           JUNCTION      0.00   412.88     0  03:25           0        1.28      -0.041
  WS02006245           JUNCTION      0.00   412.71     0  03:25           0        1.27       0.517
  WS02006247           JUNCTION      0.00   413.82     0  03:25           0        1.27       0.020
  WS02006248           JUNCTION      0.00   412.83     0  03:25           0        1.32       0.034
  WS02006249           JUNCTION      0.00   614.08     0  01:30           0           4       0.093
  WS02006251           JUNCTION      0.08   602.73     0  01:30     0.00222        4.02      -0.010
  WS02006252           JUNCTION      0.00   400.00     0  00:00           0        3.04      -0.026
  WS02006253           JUNCTION      3.92   381.14     0  01:26      0.0197       0.973       0.009
  WS02006256           JUNCTION      0.00   300.00     0  00:00           0        2.43      -0.108
  WS02006280           JUNCTION      0.00   743.49     0  01:47           0        4.71       0.009
  WS02006284           JUNCTION      0.10   743.45     0  01:47     0.00275        4.72       0.023
  WS02006287           JUNCTION      0.00   743.31     0  01:46           0        4.71       0.019
  WSF200               JUNCTION      0.00   952.28     0  01:48           0        7.71       0.008
  YS02001580           JUNCTION      0.00    20.55     0  01:28           0     0.00478       0.839
  YS02001583           JUNCTION      0.00    52.17     0  01:27           0      0.0157      -2.221
  YS02001586           JUNCTION    205.85   206.00     0  01:46        1.34        1.35       0.064
  YS02001590           JUNCTION      0.00   205.97     0  01:46           0        1.34      -0.036
  YS02001593           JUNCTION      0.00   205.93     0  01:45           0        1.34      -0.000
  YS02001596           JUNCTION      0.00   206.07     0  01:46           0        1.34      -0.015
  YS02001600           JUNCTION      0.00   206.21     0  01:46           0        1.34       0.005
  YS02001601           JUNCTION    342.07   539.00     0  01:32        1.89        3.23       0.018
  YS02001602           JUNCTION      0.00   513.82     0  01:33           0        3.21       0.011
  YS02001605           JUNCTION      0.00   513.81     0  01:33           0        3.21       0.016
  YS02001607           JUNCTION      0.00   513.84     0  01:33           0         3.2       0.057
  YS02001610           JUNCTION      0.00   513.85     0  01:33           0         3.2       0.078
  YS02001613           JUNCTION      0.00   513.81     0  01:32           0         3.2       0.055
  YS02001616           JUNCTION      0.00   513.84     0  01:32           0        3.21       0.016
  YS02001619           JUNCTION    345.44   849.36     0  01:41        2.14        5.35       0.002
  YS02001622           JUNCTION      0.00   849.18     0  01:42           0        5.34      -0.002
  YS02001625           JUNCTION      0.00   849.27     0  01:41           0        5.34       0.185
  YS02001629           JUNCTION      0.00   849.21     0  01:41           0        5.33       0.010
  YS02001633           JUNCTION    249.04  1091.63     0  01:31        1.37        6.71       0.050
  YS02001641           JUNCTION      0.00  1091.89     0  01:31           0        6.71       0.043
  YS02001644           JUNCTION    219.17  1307.79     0  01:31        1.19        7.89       0.041
  YS02001647           JUNCTION      0.00  1307.97     0  01:31           0        7.87       0.007
  YS02001649           JUNCTION      0.00  1488.92     0  01:32           0        8.94       0.008
  YS02001652           JUNCTION      0.00   195.95     0  01:27           0        1.07      -0.146
  YS02001655           JUNCTION      0.15   210.37     0  02:13     0.00443        1.07       0.111
  YS02001658           JUNCTION      0.00   197.04     0  01:28           0        1.07      -0.004
  YS02001661           JUNCTION      0.00   197.08     0  01:28           0        1.07       0.036
  YS02001664           JUNCTION    197.10   197.10     0  01:28        1.07        1.07      -0.011
  YS02001745           JUNCTION    130.99   130.99     0  01:27       0.657       0.657       0.023
  YS02001748           JUNCTION      0.04   131.02     0  01:27      0.0013       0.658      -0.026
  YS02001751           JUNCTION      0.01   134.12     0  02:16    0.000317       0.659       0.080
  YS02001754           JUNCTION      0.26   131.28     0  01:27     0.00749       0.666      -0.111
  YS02001757           JUNCTION      0.00  2011.90     0  01:30           0        11.9       0.025
  YS02001759           JUNCTION    178.59   422.26     0  01:30       0.904        2.31      -0.015
  YS02001762           JUNCTION      0.00   249.55     0  01:30           0         1.4       0.013
  YS02001765           JUNCTION      0.00   256.26     0  01:30           0         1.4       0.015
  YS02001767           JUNCTION      0.54   260.09     0  01:30      0.0154         1.4       0.016
  YS02001770           JUNCTION    268.50   268.50     0  01:27        1.39        1.43      -0.011
  YS02001774           JUNCTION      0.00    35.64     0  01:08           0      0.0563       2.283
  YS02001779           JUNCTION      0.01    19.07     0  01:38    0.000144       0.017       0.160
  YS02001783           JUNCTION      0.00   781.76     0  01:34           0        4.37       0.007
  YS02001784           JUNCTION      1.06   783.66     0  01:34      0.0305         4.4       0.011
  YS02001786           JUNCTION      0.06   779.08     0  01:34     0.00162        4.41       0.016
  YS02001788           JUNCTION      0.07   777.71     0  01:35     0.00204        4.41       0.008
  YS02001790           JUNCTION      0.15   777.42     0  01:35     0.00446        4.41       0.028
  YS02001791           JUNCTION      0.00   808.41     0  01:35           0        4.41      -0.014
  YS02001793           JUNCTION      0.00   779.18     0  01:35           0        4.41       0.005
  YS02001882           JUNCTION      0.00    33.75     0  01:17           0      0.0323       2.256
  YS02001884           JUNCTION      0.00    62.72     0  01:15           0      0.0687       3.845
  YS02001887           JUNCTION    191.97   199.65     0  01:22       0.955       0.988       0.440
  YS02001890           JUNCTION      0.00   203.80     0  01:23           0       0.947       0.550
  YS02001895           JUNCTION      0.00   195.58     0  01:23           0       0.942       0.240
  YS02001898           JUNCTION      0.00   200.73     0  01:25           0        0.94      -0.011
  YS02001901           JUNCTION      0.00   207.75     0  01:25           0       0.944       0.369
  YS02001904           JUNCTION      0.00   188.52     0  01:23           0       0.952       0.304
  YS02001907           JUNCTION      0.00   544.82     0  01:51           0        3.05       0.570
  YS02001910           JUNCTION      0.00   401.71     0  01:32           0         2.1       0.343
  YS02001915           JUNCTION    243.82   365.54     0  01:31        1.32         2.1       0.075
  YS02001918           JUNCTION      0.00   127.95     0  01:36           0       0.779       0.040
  YS02001920           JUNCTION      2.87   125.41     0  01:36      0.0827        0.78       0.138
  YS02001923           JUNCTION      0.04   120.86     0  01:31     0.00109       0.697       0.002
  YS02001926           JUNCTION      0.05   120.87     0  01:31      0.0015       0.697       0.044
  YS02001929           JUNCTION    120.82   120.82     0  01:31       0.695       0.695      -0.007
  YS02006553           JUNCTION      0.00   545.19     0  01:50           0        3.05       0.379
  YS02006556           JUNCTION      0.00   545.63     0  01:50           0        3.06       0.269
  YS02006558           JUNCTION    267.30   780.16     0  01:34        1.39        4.42       0.104
  YS02006561           JUNCTION      0.00   781.36     0  01:34           0        4.37      -0.031
  YS02163301           JUNCTION      0.00   847.98     0  01:42           0        5.34       0.029
  YS02163601           JUNCTION      0.11  1091.77     0  01:31     0.00317         6.7       0.075
  YS02164001           JUNCTION      0.00  1091.80     0  01:31           0         6.7       0.037
  YSB1154              JUNCTION     48.29    48.29     0  01:43       0.274       0.274       0.527
  YSB1171              JUNCTION      0.00    86.45     0  01:30           0       0.486       1.325
  YSB1174              JUNCTION     38.94    38.94     0  01:27       0.204       0.205       0.628
  YSB6556              JUNCTION      0.00    48.23     0  01:31           0       0.275       0.463
  CC-1                 OUTFALL       0.00   683.00     0  00:00           0        4.83       0.000
  CC-2                 OUTFALL       0.00   683.00     0  00:00           0        4.31       0.000
  JK-1                 OUTFALL       0.00  1000.00     0  00:00           0        1.97       0.000
  JK-2                 OUTFALL       0.00  1000.00     0  00:00           0      0.0484       0.000
  WSC                  OUTFALL       0.00  1167.54     0  01:50           0        13.5       0.000
  CC-storage           STORAGE       0.00  1984.90     0  01:30           0        14.1      -0.071
  JK-storage           STORAGE       0.00   779.25     0  01:35           0        4.56      -0.128
  XR-storage           STORAGE     200.00   200.00     0  00:00        5.76        6.36       0.001
  
  
  **********************
  Node Surcharge Summary
  **********************
  
  Surcharging occurs when water rises above the top of the highest conduit.
  ---------------------------------------------------------------------
                                               Max. Height   Min. Depth
                                   Hours       Above Crown    Below Rim
  Node                 Type      Surcharged         Meters       Meters
  ---------------------------------------------------------------------
  HS02004817           JUNCTION        0.43          0.015        1.725
  WS02004401           JUNCTION        1.84          0.509        1.151
  WS02004402           JUNCTION        1.89          0.453        1.287
  WS02004403           JUNCTION        1.90          0.368        1.662
  WS02004404           JUNCTION        2.01          0.399        2.381
  WS02004405           JUNCTION        2.00          0.382        2.418
  WS02004406           JUNCTION        1.99          0.438        2.012
  WS02004413           JUNCTION        1.55          0.029        2.171
  WS02006109           JUNCTION        2.15          0.961        0.859
  WS02006110           JUNCTION        2.05          0.855        0.995
  WS02006111           JUNCTION        1.02          0.744        1.126
  WS02006112           JUNCTION        2.09          0.920        0.760
  WS02006113           JUNCTION        1.13          0.532        1.398
  WS02006115           JUNCTION        1.72          1.012        1.238
  WS02006116           JUNCTION        1.74          0.770        1.520
  WS02006228           JUNCTION        2.15          1.110        1.090
  WS02006230           JUNCTION        2.02          0.903        0.667
  WS02006231           JUNCTION        2.03          0.910        0.620
  WS02006232           JUNCTION        2.09          1.011        0.469
  WS02006234           JUNCTION        2.03          0.882        0.358
  WS02006235           JUNCTION        2.05          0.896        0.394
  WS02006238           JUNCTION        2.06          0.904        0.526
  WS02006239           JUNCTION        2.03          0.940        0.350
  WS02006240           JUNCTION        2.03          0.935        0.455
  WS02006242           JUNCTION        2.03          0.820        0.000
  WS02006243           JUNCTION        2.02          0.770        0.000
  WS02006245           JUNCTION        2.01          0.850        0.000
  WS02006247           JUNCTION        2.01          0.760        0.000
  WS02006248           JUNCTION        2.00          0.380        0.000
  WS02006249           JUNCTION        2.00          0.390        0.000
  WS02006251           JUNCTION        1.97          0.772        0.408
  WS02006252           JUNCTION        2.11          1.100        0.000
  WS02006253           JUNCTION        1.98          1.225        1.255
  WS02006256           JUNCTION        4.88          2.050        0.000
  YS02001586           JUNCTION        0.61          0.287        0.223
  YS02001590           JUNCTION        0.96          0.543        0.207
  YS02001593           JUNCTION        0.96          0.544        0.296
  YS02001596           JUNCTION        1.22          0.840        0.230
  YS02001600           JUNCTION        1.79          1.136        0.054
  YS02001601           JUNCTION        2.01          1.440        0.000
  YS02001602           JUNCTION        1.94          1.228        0.042
  YS02001605           JUNCTION        1.90          1.032        0.148
  YS02001607           JUNCTION        0.90          0.315        0.365
  YS02001610           JUNCTION        0.95          0.352        0.328
  YS02001613           JUNCTION        0.88          0.286        0.414
  YS02001616           JUNCTION        0.65          0.198        0.412
  YS02001619           JUNCTION        0.57          0.169        0.441
  YS02001622           JUNCTION        0.55          0.157        0.463
  YS02001625           JUNCTION        1.12          0.397        0.383
  YS02001629           JUNCTION        0.08          0.021        0.449
  YS02001633           JUNCTION        1.15          0.412        0.648
  YS02001641           JUNCTION        0.98          0.275        0.825
  YS02001644           JUNCTION        0.91          0.221        0.699
  YS02001649           JUNCTION        0.35          0.096        0.954
  YS02001757           JUNCTION        0.60          0.134        1.076
  YS02001759           JUNCTION        0.15          0.039        1.171
  YS02001762           JUNCTION        0.01          0.008        1.142
  YS02001907           JUNCTION        1.00          0.145        0.805
  YS02006553           JUNCTION        1.06          0.151        1.039
  YS02006556           JUNCTION        0.41          0.072        1.278
  YS02006558           JUNCTION        0.36          0.049        1.351
  YS02163301           JUNCTION        1.11          0.403        0.627
  YS02163601           JUNCTION        1.23          0.400        0.680
  YS02164001           JUNCTION        1.01          0.291        0.809
  
  
  *********************
  Node Flooding Summary
  *********************
  
  Flooding refers to all water that overflows a node, whether it ponds or not.
  --------------------------------------------------------------------------
                                                             Total   Maximum
                                 Maximum   Time of Max       Flood    Ponded
                        Hours       Rate    Occurrence      Volume     Depth
  Node                 Flooded       LPS   days hr:min    10^6 ltr    Meters
  --------------------------------------------------------------------------
  WS02006242              0.01    138.01      0  01:25       0.000     0.000
  WS02006243              0.01     31.32      0  01:26       0.000     0.000
  WS02006245              0.01    158.79      0  01:25       0.000     0.000
  WS02006247              0.01    240.19      0  01:26       0.000     0.000
  WS02006248              0.55    272.92      0  01:26       0.059     0.000
  WS02006249              1.98    518.54      0  01:30       2.678     0.000
  WS02006252              0.01    245.63      0  00:00       0.000     0.000
  WS02006256              2.25    293.19      0  00:00       1.029     0.000
  YS02001601              0.36     29.64      0  01:46       0.021     0.000
  
  
  **********************
  Storage Volume Summary
  **********************
  
  --------------------------------------------------------------------------------------------------
                         Average     Avg  Evap Exfil       Maximum     Max    Time of Max    Maximum
                          Volume    Pcnt  Pcnt  Pcnt        Volume    Pcnt     Occurrence    Outflow
  Storage Unit           1000 m3    Full  Loss  Loss       1000 m3    Full    days hr:min        LPS
  --------------------------------------------------------------------------------------------------
  CC-storage               2.465      38     0     0         3.930      61       0  01:57    1783.53
  JK-storage               0.114      39     0     0         0.212      73       0  01:34    2300.00
  XR-storage               0.940      65     0     0         1.111      77       0  08:00     380.00
  
  
  ***********************
  Outfall Loading Summary
  ***********************
  
  -----------------------------------------------------------
                         Flow       Avg       Max       Total
                         Freq      Flow      Flow      Volume
  Outfall Node           Pcnt       LPS       LPS    10^6 ltr
  -----------------------------------------------------------
  CC-1                  41.50    683.00    683.00       4.827
  CC-2                  37.92    683.00    683.00       4.309
  JK-1                  13.30   1000.00   1000.00       1.973
  JK-2                   0.19   1000.00   1000.00       0.048
  WSC                   99.95    625.55   1167.54      13.514
  -----------------------------------------------------------
  System                38.57   3991.55   1167.54      24.672
  
  
  ********************
  Link Flow Summary
  ********************
  
  -----------------------------------------------------------------------------
                                 Maximum  Time of Max   Maximum    Max/    Max/
                                  |Flow|   Occurrence   |Veloc|    Full    Full
  Link                 Type          LPS  days hr:min     m/sec    Flow   Depth
  -----------------------------------------------------------------------------
  1                    CONDUIT   1167.54     0  01:50      3.47    0.41    0.44
  HS02004478WS02006287 CONDUIT    743.31     0  01:46      2.18    0.21    0.38
  HS02004479HS02004480 CONDUIT     86.44     0  01:31      0.43    0.08    0.59
  HS02004480HS02004478 CONDUIT    547.45     0  01:46      1.58    2.31    0.50
  HS02004770HS02004777 CONDUIT    185.02     0  01:45      0.48    0.34    0.55
  HS02004777HS02004785 CONDUIT    184.91     0  01:46      0.58    0.23    0.46
  HS02004785HS02004788 CONDUIT    185.07     0  01:46      0.90    1.40    0.29
  HS02004788HS02004792 CONDUIT    244.49     0  01:46      1.28    0.16    0.27
  HS02004792HS02004799 CONDUIT    423.89     0  01:46      1.21    0.26    0.50
  HS02004799HS02004480 CONDUIT    463.76     0  01:46      1.08    0.59    0.61
  HS02004802HS02004478 CONDUIT    196.56     0  01:48      0.56    0.17    0.51
  HS02004807HS02004802 CONDUIT    196.20     0  01:47      0.50    0.37    0.57
  HS02004817HS02004807 CONDUIT    148.23     0  01:49      0.27    0.09    0.78
  HS02004817HS02004824 CONDUIT    147.40     0  01:48      0.35    0.07    0.61
  HS02004824HS02004830 CONDUIT     71.61     0  01:47      0.62    0.09    0.19
  HS02004830HS02004837 CONDUIT     71.61     0  01:45      0.68    0.07    0.15
  HS02004837HS02004842 CONDUIT     21.12     0  02:18      0.41    0.01    0.36
  HS02004842HS02004848 CONDUIT     20.85     0  02:15      0.09    0.01    0.34
  HS02004848HS02004852 CONDUIT     43.36     0  01:46      0.55    0.05    0.11
  HS02004852HS02004856 CONDUIT     43.39     0  01:46      0.36    0.05    0.17
  HS02004856HS02004862 CONDUIT     63.51     0  01:46      0.62    0.06    0.15
  HS02004862HS02004870 CONDUIT     90.89     0  01:46      0.84    0.10    0.15
  HS02004870HS02004876 CONDUIT    117.71     0  01:45      0.87    0.08    0.19
  HS02004876HS02004881 CONDUIT    145.05     0  01:45      1.28    1.54    0.17
  HS02004881HS02006253 CONDUIT    216.35     0  01:27      2.65    0.04    0.55
  HS02004901HS02004770 CONDUIT     35.49     0  01:45      0.09    0.13    0.54
  WS02001211WS02001212 CONDUIT    206.97     0  03:32      0.54    0.16    0.60
  WS02001212WS02001213 CONDUIT    210.27     0  03:33      1.04    0.32    0.46
  WS02001213WS02003059 CONDUIT    215.79     0  03:33      0.47    0.36    0.79
  WS02003059WS02003060 CONDUIT    223.21     0  03:32      0.66    0.15    0.71
  WS02003060WS02003069 CONDUIT   1165.42     0  01:49      1.96    0.46    0.52
  WS02003066WSF200     CONDUIT    952.28     0  01:48      3.18    0.16    0.32
  WS02003067WS02003066 CONDUIT    952.27     0  01:47      1.67    0.31    0.50
  WS02003069WS02003072 CONDUIT   1165.73     0  01:49      1.74    0.56    0.57
  WS02003072WS02003073 CONDUIT   1165.72     0  01:50      1.87    2.52    0.54
  WS02004138WS02004139 CONDUIT    190.63     0  00:29      2.18    0.04    0.37
  WS02004139WS02001211 CONDUIT    195.47     0  03:32      0.54    0.25    0.53
  WS02004401WS02004402 CONDUIT    968.65     0  01:30      1.23    1.16    1.00
  WS02004402WS02004403 CONDUIT    970.08     0  01:30      1.24    1.39    1.00
  WS02004403WS02004404 CONDUIT    970.40     0  01:30      1.24    0.70    1.00
  WS02004404WS02004405 CONDUIT    971.10     0  01:30      1.39    9.51    1.00
  WS02004405WS02004406 CONDUIT    971.56     0  01:30      1.35    1.92    1.00
  WS02004406WS02004407 CONDUIT    971.99     0  01:30      1.65    0.43    0.70
  WS02004407WS02004409 CONDUIT    969.04     0  01:30      1.90    0.34    0.69
  WS02004409WS02004410 CONDUIT    952.23     0  01:47      1.30    1.23    0.97
  WS02004410WS02004411 CONDUIT    952.21     0  01:47      1.24    1.30    0.95
  WS02004411WS02004412 CONDUIT    952.20     0  01:47      1.26    1.35    0.92
  WS02004412WS02004413 CONDUIT    952.23     0  01:47      1.23    0.64    0.96
  WS02004413WS02003067 CONDUIT    952.24     0  01:47      1.57    0.41    0.72
  WS02006109WS02006110 CONDUIT    959.94     0  01:28      1.91    1.85    1.00
  WS02006110WS02006113 CONDUIT    960.06     0  01:28      1.99    0.87    1.00
  WS02006111WS02006112 CONDUIT    937.61     0  01:30      1.94    0.45    1.00
  WS02006112WS02006115 CONDUIT    966.91     0  01:30      1.23    0.57    1.00
  WS02006113WS02006111 CONDUIT    937.50     0  01:29      2.71    1.12    1.00
  WS02006115WS02006116 CONDUIT    968.58     0  01:30      1.23    1.24    1.00
  WS02006116WS02004401 CONDUIT    968.52     0  01:30      1.23    1.33    1.00
  WS02006228WS02006109 CONDUIT    958.26     0  01:28      1.91    4.19    1.00
  WS02006229WS02006228 CONDUIT    958.70     0  01:28      1.91    3.18    1.00
  WS02006230WS02006229 CONDUIT    499.79     0  03:25      1.30   11.12    1.00
  WS02006231WS02006230 CONDUIT    489.87     0  03:24      1.34    7.43    1.00
  WS02006232WS02006231 CONDUIT    489.80     0  03:24      1.27    1.03    1.00
  WS02006234WS02006232 CONDUIT    489.60     0  03:24      1.41    0.99    1.00
  WS02006235WS02006234 CONDUIT    488.97     0  03:24      1.27    5.16    1.00
  WS02006238WS02006235 CONDUIT    408.90     0  03:25      1.45    0.91    1.00
  WS02006239WS02006238 CONDUIT    413.25     0  03:25      1.12    1.32    1.00
  WS02006240WS02006239 CONDUIT    413.41     0  03:25      1.26    1.30    1.00
  WS02006242WS02006240 CONDUIT    412.73     0  03:25      1.14    1.64    1.00
  WS02006243WS02006242 CONDUIT    413.37     0  03:25      1.34    0.88    1.00
  WS02006245WS02006243 CONDUIT    412.88     0  03:25      1.39    1.22    1.00
  WS02006247WS02006245 CONDUIT    412.71     0  03:25      1.37    3.27    1.00
  WS02006248WS02006247 CONDUIT    413.82     0  03:25      1.38    0.90    1.00
  WS02006249WS02006248 CONDUIT    412.83     0  03:25      1.38    2.26    1.00
  WS02006251WS02006249 CONDUIT    614.08     0  01:30      1.68    1.77    1.00
  WS02006252WS02006251 CONDUIT    411.88     0  01:30     24.89    1.51    1.00
  WS02006253WS02006251 CONDUIT    329.16     0  03:26      1.19    0.99    1.00
  WS02006256WS02006235 CONDUIT    288.93     0  00:00      4.23    3.06    1.00
  WS02006280WS02006229 CONDUIT    743.48     0  01:47      4.20    0.16    0.58
  WS02006284WS02006280 CONDUIT    743.49     0  01:47      2.68    0.31    0.38
  WS02006287WS02006284 CONDUIT    743.36     0  01:47      2.45    0.34    0.41
  WSF200WS02003060     CONDUIT    952.26     0  01:48      2.29    0.21    0.42
  YS02001580YS02001583 CONDUIT     20.55     0  01:28      0.39    0.08    0.93
  YS02001583YS02001586 CONDUIT     52.17     0  01:27      0.24    0.08    0.95
  YS02001586YS02001590 CONDUIT    205.97     0  01:46      1.25    0.36    1.00
  YS02001590YS02001593 CONDUIT    205.93     0  01:45      1.04    1.29    1.00
  YS02001593YS02001596 CONDUIT    206.07     0  01:46      1.69    0.33    1.00
  YS02001596YS02001600 CONDUIT    206.21     0  01:46      1.20    0.40    1.00
  YS02001600YS02001601 CONDUIT    206.31     0  01:46      0.73    0.36    1.00
  YS02001601YS02001602 CONDUIT    513.82     0  01:33      1.82    1.86    1.00
  YS02001602YS02001605 CONDUIT    513.81     0  01:33      1.82   10.87    1.00
  YS02001605YS02001607 CONDUIT    513.84     0  01:33      1.82    2.82    1.00
  YS02001607YS02001610 CONDUIT    513.85     0  01:33      0.67    0.49    1.00
  YS02001610YS02001613 CONDUIT    513.81     0  01:32      0.65    0.59    1.00
  YS02001613YS02001616 CONDUIT    513.84     0  01:32      0.67    0.44    1.00
  YS02001616YS02001619 CONDUIT    513.87     0  01:32      0.72    0.89    1.00
  YS02001619YS02001622 CONDUIT    849.18     0  01:42      1.47    1.25    1.00
  YS02001622YS02001625 CONDUIT    849.27     0  01:41      1.08    0.45    1.00
  YS02001625YS02001629 CONDUIT    849.21     0  01:41      1.10    0.40    1.00
  YS02001629YS02163301 CONDUIT    847.98     0  01:42      1.08    1.04    1.00
  YS02001633YS02163601 CONDUIT   1091.66     0  01:31      1.39    1.15    1.00
  YS02001641YS02001644 CONDUIT   1092.10     0  01:31      1.39    3.53    1.00
  YS02001644YS02001647 CONDUIT   1307.97     0  01:31      1.87    0.77    0.98
  YS02001647YS02001649 CONDUIT   1307.91     0  01:31      2.18    0.69    0.98
  YS02001649YS02001757 CONDUIT   1483.80     0  01:31      2.35    0.90    1.00
  YS02001652YS02001649 CONDUIT    206.13     0  02:12      1.13    0.10    0.95
  YS02001655YS02001652 CONDUIT    195.95     0  01:27      1.53    0.10    0.75
  YS02001658YS02001655 CONDUIT    210.22     0  02:13      1.73    0.09    0.48
  YS02001661YS02001658 CONDUIT    197.04     0  01:28      1.87    0.08    0.26
  YS02001664YS02001661 CONDUIT    197.08     0  01:28      1.61    0.06    0.21
  YS02001745YS02001748 CONDUIT    130.98     0  01:27      1.73    0.05    0.19
  YS02001748YS02001751 CONDUIT    134.11     0  02:16      1.45    0.07    0.41
  YS02001751YS02001754 CONDUIT    131.02     0  01:27      1.44    0.06    0.63
  YS02001754YS02001757 CONDUIT    137.32     0  02:17      0.82    0.06    0.90
  YS02001757CaochengTiaoxuchi CONDUIT   1984.90     0  01:30      2.74    0.86    1.00
  YS02001759YS02001757 CONDUIT    416.74     0  01:29      1.19    0.30    1.00
  YS02001762YS02001759 CONDUIT    248.58     0  01:30      0.71    0.29    1.00
  YS02001765YS02001762 CONDUIT    249.55     0  01:30      0.82    0.23    0.98
  YS02001767YS02001765 CONDUIT    256.26     0  01:30      0.88    0.32    0.94
  YS02001770YS02001767 CONDUIT    259.55     0  01:30      0.80    1.03    0.92
  YS02001774YS02001770 CONDUIT     35.64     0  01:08      0.55    0.02    0.94
  YS02001779YS02001774 CONDUIT     19.58     0  02:46      0.16    0.01    0.86
  YS02001783YS02001784 CONDUIT    782.60     0  01:34      1.66    1.08    0.88
  YS02001784YS02001785 CONDUIT    779.02     0  01:34      1.80    1.81    0.81
  YS02001786YS02001788 CONDUIT    777.64     0  01:35      2.24    1.50    0.65
  YS02001788YS02001790 CONDUIT    777.26     0  01:35      2.33    0.57    0.63
  YS02001790YS02001791 CONDUIT    808.41     0  01:35      2.85    0.88    0.55
  YS02001791YS02001793 CONDUIT    779.18     0  01:35      5.80    0.33    0.31
  YS02001793JiankangQianchi CONDUIT    779.25     0  01:35      1.64    0.06    0.58
  YS02001882YS02001884 CONDUIT     33.75     0  01:17      0.30    0.04    0.75
  YS02001884YS02001887 CONDUIT     62.72     0  01:15      0.24    0.08    0.85
  YS02001887YS02001890 CONDUIT    203.80     0  01:23      0.30    0.35    0.90
  YS02001890YS02001895 CONDUIT    195.58     0  01:23      0.32    0.09    0.82
  YS02001895YS02001898 CONDUIT    200.73     0  01:25      0.58    0.35    0.69
  YS02001898YS02001901 CONDUIT    207.75     0  01:25      0.49    0.13    0.77
  YS02001901YS02001904 CONDUIT    188.52     0  01:23      0.50    0.29    0.82
  YS02001904YS02001907 CONDUIT    198.35     0  01:24      0.28    0.07    0.91
  YS02001907YS02006553 CONDUIT    545.19     0  01:50      0.61    0.64    1.00
  YS02001910YS02001907 CONDUIT    383.81     0  01:32      0.49    0.22    0.98
  YS02001915YS02001910 CONDUIT    401.71     0  01:32      0.94    0.20    0.84
  YS02001918YS02001915 CONDUIT    138.45     0  01:51      0.44    0.08    0.55
  YS02001920YS02001918 CONDUIT    127.95     0  01:36      0.66    0.12    0.41
  YS02001923YS02001920 CONDUIT    122.54     0  01:36      0.71    0.06    0.31
  YS02001926YS02001923 CONDUIT    120.82     0  01:31      0.83    0.17    0.24
  YS02001929YS02001926 CONDUIT    120.82     0  01:31      0.90    0.06    0.23
  YS02006553YS02006556 CONDUIT    545.63     0  01:50      0.69    0.47    1.00
  YS02006556YS02006558 CONDUIT    545.23     0  01:50      0.69    0.43    1.00
  YS02006558YS02006561 CONDUIT    781.36     0  01:34      3.13    1.73    0.83
  YS02006561YS02001783 CONDUIT    781.76     0  01:34      2.12    0.40    0.69
  YS02163301YS02001633 CONDUIT    847.35     0  01:41      1.08    0.80    1.00
  YS02163601YS02164001 CONDUIT   1091.80     0  01:31      1.39    0.97    1.00
  YS02164001YS02001641 CONDUIT   1091.89     0  01:31      1.39    1.49    1.00
  YSB1154YSB6556       CONDUIT     48.23     0  01:31      0.16    0.09    0.75
  YSB1171HS02004479    CONDUIT     86.17     0  01:31      0.54    0.06    0.69
  YSB1174YSB1171       CONDUIT     38.87     0  01:28      0.11    0.06    0.86
  YSB6556YSB1171       CONDUIT     48.56     0  01:32      0.14    0.05    0.83
  CC-R1                PUMP       683.00     0  00:00              1.00
  CC-R2                PUMP       683.00     0  00:00              1.00
  CC-S1                PUMP       200.00     0  00:00              1.00
  CC-S2                PUMP       200.00     0  00:00              1.00
  JK-R1                PUMP      1000.00     0  00:00              1.00
  JK-R2                PUMP      1000.00     0  00:00              1.00
  JK-S                 PUMP       300.00     0  00:00              1.00
  XR-1                 PUMP        95.00     0  00:00              1.00
  XR-2                 PUMP        95.00     0  00:00              1.00
  XR-3                 PUMP        95.00     0  00:00              1.00
  XR-4                 PUMP        95.00     0  00:00              1.00
  
  
  ***************************
  Flow Classification Summary
  ***************************
  
  -------------------------------------------------------------------------------------
                      Adjusted    ---------- Fraction of Time in Flow Class ---------- 
                       /Actual         Up    Down  Sub   Sup   Up    Down  Norm  Inlet 
  Conduit               Length    Dry  Dry   Dry   Crit  Crit  Crit  Crit  Ltd   Ctrl  
  -------------------------------------------------------------------------------------
  1                       1.00   0.00  0.00  0.00  0.00  1.00  0.00  0.00  0.35  0.00
  HS02004478WS02006287    1.00   0.09  0.00  0.00  0.43  0.48  0.00  0.00  0.60  0.00
  HS02004479HS02004480    1.00   0.04  0.00  0.00  0.96  0.00  0.00  0.00  0.10  0.00
  HS02004480HS02004478    1.00   0.09  0.00  0.00  0.36  0.00  0.00  0.55  0.00  0.00
  HS02004770HS02004777    1.00   0.00  0.08  0.00  0.91  0.00  0.00  0.00  0.01  0.00
  HS02004777HS02004785    1.00   0.00  0.00  0.00  1.00  0.00  0.00  0.00  0.10  0.00
  HS02004785HS02004788    1.00   0.00  0.00  0.00  1.00  0.00  0.00  0.00  0.00  0.00
  HS02004788HS02004792    1.00   0.00  0.00  0.00  0.99  0.01  0.00  0.00  0.98  0.00
  HS02004792HS02004799    1.00   0.00  0.00  0.00  0.99  0.01  0.00  0.00  0.98  0.00
  HS02004799HS02004480    1.00   0.00  0.04  0.00  0.91  0.00  0.05  0.00  0.00  0.00
  HS02004802HS02004478    1.00   0.09  0.00  0.00  0.91  0.00  0.00  0.00  0.01  0.00
  HS02004807HS02004802    1.00   0.09  0.00  0.00  0.91  0.00  0.00  0.01  0.00  0.00
  HS02004817HS02004807    1.00   0.00  0.09  0.00  0.91  0.00  0.00  0.00  0.01  0.00
  HS02004817HS02004824    1.00   0.00  0.00  0.00  1.00  0.00  0.00  0.00  0.79  0.00
  HS02004824HS02004830    1.00   0.00  0.00  0.00  1.00  0.00  0.00  0.00  0.08  0.00
  HS02004830HS02004837    1.00   0.00  0.00  0.00  1.00  0.00  0.00  0.00  0.99  0.00
  HS02004837HS02004842    1.00   0.00  0.00  0.00  1.00  0.00  0.00  0.00  0.11  0.00
  HS02004842HS02004848    1.00   0.00  0.08  0.00  0.91  0.00  0.00  0.00  0.55  0.00
  HS02004848HS02004852    1.00   0.09  0.00  0.00  0.91  0.00  0.00  0.00  0.83  0.00
  HS02004852HS02004856    1.00   0.08  0.00  0.00  0.91  0.00  0.00  0.00  0.64  0.00
  HS02004856HS02004862    1.00   0.00  0.09  0.00  0.91  0.00  0.00  0.00  0.85  0.00
  HS02004862HS02004870    1.00   0.00  0.00  0.00  1.00  0.00  0.00  0.00  0.02  0.00
  HS02004870HS02004876    1.00   0.00  0.00  0.00  0.99  0.01  0.00  0.00  0.95  0.00
  HS02004876HS02004881    1.00   0.02  0.00  0.00  0.56  0.42  0.00  0.00  0.00  0.00
  HS02004881HS02006253    1.00   0.03  0.02  0.00  0.45  0.01  0.00  0.49  0.26  0.00
  HS02004901HS02004770    1.00   0.08  0.00  0.00  0.91  0.00  0.00  0.00  0.00  0.00
  WS02001211WS02001212    1.00   0.00  0.03  0.00  0.97  0.00  0.00  0.00  0.00  0.00
  WS02001212WS02001213    1.00   0.03  0.00  0.00  0.48  0.00  0.49  0.00  0.00  0.00
  WS02001213WS02003059    1.00   0.00  0.00  0.00  0.99  0.00  0.00  0.00  0.00  0.00
  WS02003059WS02003060    1.00   0.00  0.00  0.00  1.00  0.00  0.00  0.00  0.03  0.00
  WS02003060WS02003069    1.00   0.00  0.00  0.00  0.97  0.03  0.00  0.00  0.54  0.00
  WS02003066WSF200        1.00   0.06  0.00  0.00  0.00  0.94  0.00  0.00  0.66  0.00
  WS02003067WS02003066    1.00   0.05  0.00  0.00  0.94  0.00  0.00  0.00  0.00  0.00
  WS02003069WS02003072    1.00   0.00  0.00  0.00  1.00  0.00  0.00  0.00  0.67  0.00
  WS02003072WS02003073    1.00   0.00  0.00  0.00  0.00  0.00  0.00  1.00  0.00  0.00
  WS02004138WS02004139    1.00   0.00  0.01  0.00  0.97  0.01  0.00  0.01  0.98  0.00
  WS02004139WS02001211    1.00   0.00  0.00  0.00  0.99  0.00  0.00  0.00  0.00  0.00
  WS02004401WS02004402    1.00   0.03  0.00  0.00  0.97  0.00  0.00  0.00  0.00  0.00
  WS02004402WS02004403    1.00   0.03  0.00  0.00  0.97  0.00  0.00  0.00  0.00  0.00
  WS02004403WS02004404    1.00   0.00  0.03  0.00  0.97  0.00  0.00  0.00  0.00  0.00
  WS02004404WS02004405    1.00   0.00  0.00  0.00  1.00  0.00  0.00  0.00  0.01  0.00
  WS02004405WS02004406    1.00   0.00  0.00  0.00  1.00  0.00  0.00  0.00  0.00  0.00
  WS02004406WS02004407    1.00   0.00  0.04  0.00  0.96  0.00  0.00  0.00  0.00  0.00
  WS02004407WS02004409    1.00   0.04  0.00  0.00  0.95  0.01  0.00  0.00  0.95  0.00
  WS02004409WS02004410    1.00   0.04  0.00  0.00  0.96  0.00  0.00  0.00  0.00  0.00
  WS02004410WS02004411    1.00   0.04  0.00  0.00  0.96  0.00  0.00  0.00  0.00  0.00
  WS02004411WS02004412    1.00   0.04  0.00  0.00  0.96  0.00  0.00  0.00  0.00  0.00
  WS02004412WS02004413    1.00   0.04  0.00  0.00  0.95  0.00  0.00  0.00  0.00  0.00
  WS02004413WS02003067    1.00   0.04  0.01  0.00  0.00  0.00  0.95  0.00  0.00  0.00
  WS02006109WS02006110    1.00   0.00  0.01  0.00  0.98  0.00  0.01  0.00  0.00  0.00
  WS02006110WS02006113    1.00   0.01  0.01  0.00  0.98  0.00  0.00  0.00  0.00  0.00
  WS02006111WS02006112    1.00   0.02  0.00  0.00  0.97  0.00  0.00  0.00  0.73  0.00
  WS02006112WS02006115    1.00   0.02  0.00  0.00  0.97  0.00  0.00  0.00  0.00  0.00
  WS02006113WS02006111    1.00   0.02  0.00  0.00  0.37  0.61  0.00  0.00  0.07  0.00
  WS02006115WS02006116    1.00   0.03  0.00  0.00  0.97  0.00  0.00  0.01  0.00  0.00
  WS02006116WS02004401    1.00   0.03  0.00  0.00  0.97  0.00  0.00  0.00  0.00  0.00
  WS02006228WS02006109    1.00   0.00  0.00  0.00  1.00  0.00  0.00  0.00  0.00  0.00
  WS02006229WS02006228    1.00   0.00  0.00  0.00  0.99  0.00  0.00  0.01  0.00  0.00
  WS02006230WS02006229    1.00   0.00  0.00  0.00  0.98  0.00  0.00  0.02  0.01  0.00
  WS02006231WS02006230    1.00   0.00  0.00  0.00  0.52  0.00  0.48  0.00  0.00  0.00
  WS02006232WS02006231    1.00   0.00  0.00  0.00  0.99  0.00  0.00  0.00  0.00  0.00
  WS02006234WS02006232    1.00   0.00  0.00  0.00  1.00  0.00  0.00  0.00  0.29  0.00
  WS02006235WS02006234    1.00   0.00  0.00  0.00  0.76  0.00  0.24  0.00  0.00  0.00
  WS02006238WS02006235    1.00   0.00  0.00  0.00  1.00  0.00  0.00  0.00  0.00  0.00
  WS02006239WS02006238    1.00   0.00  0.00  0.00  1.00  0.00  0.00  0.00  0.42  0.00
  WS02006240WS02006239    1.00   0.00  0.00  0.00  0.63  0.00  0.00  0.36  0.01  0.00
  WS02006242WS02006240    1.00   0.00  0.00  0.00  0.98  0.00  0.01  0.00  0.00  0.00
  WS02006243WS02006242    1.00   0.00  0.00  0.00  0.99  0.00  0.00  0.01  0.65  0.00
  WS02006245WS02006243    1.00   0.00  0.00  0.00  0.92  0.00  0.00  0.08  0.00  0.00
  WS02006247WS02006245    1.00   0.00  0.00  0.00  0.99  0.00  0.00  0.01  0.00  0.00
  WS02006248WS02006247    1.00   0.00  0.00  0.00  1.00  0.00  0.00  0.00  0.61  0.00
  WS02006249WS02006248    1.00   0.00  0.00  0.00  0.56  0.00  0.44  0.00  0.00  0.00
  WS02006251WS02006249    1.00   0.00  0.00  0.00  1.00  0.00  0.00  0.00  0.67  0.00
  WS02006252WS02006251    1.00   0.00  0.53  0.00  0.43  0.00  0.04  0.00  0.00  0.00
  WS02006253WS02006251    1.00   0.00  0.00  0.00  0.98  0.00  0.02  0.00  0.00  0.00
  WS02006256WS02006235    1.00   0.00  0.00  0.00  1.00  0.00  0.00  0.00  0.00  0.00
  WS02006280WS02006229    1.00   0.09  0.00  0.00  0.23  0.14  0.00  0.54  0.01  0.00
  WS02006284WS02006280    1.00   0.09  0.00  0.00  0.00  0.00  0.00  0.91  0.00  0.00
  WS02006287WS02006284    1.00   0.08  0.02  0.00  0.32  0.58  0.00  0.00  0.62  0.00
  WSF200WS02003060        1.00   0.00  0.06  0.00  0.49  0.46  0.00  0.00  0.65  0.00
  YS02001580YS02001583    1.00   0.14  0.49  0.00  0.37  0.00  0.00  0.00  0.71  0.00
  YS02001583YS02001586    1.00   0.25  0.27  0.00  0.47  0.00  0.01  0.00  0.71  0.00
  YS02001586YS02001590    1.00   0.08  0.00  0.00  0.65  0.03  0.00  0.24  0.36  0.00
  YS02001590YS02001593    1.00   0.09  0.00  0.00  0.31  0.00  0.60  0.00  0.00  0.00
  YS02001593YS02001596    1.00   0.09  0.00  0.00  0.40  0.01  0.00  0.50  0.06  0.00
  YS02001596YS02001600    1.00   0.09  0.00  0.00  0.46  0.01  0.00  0.44  0.03  0.00
  YS02001600YS02001601    1.00   0.09  0.00  0.00  0.91  0.00  0.00  0.00  0.56  0.00
  YS02001601YS02001602    1.00   0.08  0.00  0.00  0.91  0.00  0.00  0.00  0.00  0.00
  YS02001602YS02001605    1.00   0.09  0.00  0.00  0.91  0.00  0.00  0.00  0.00  0.00
  YS02001605YS02001607    1.00   0.09  0.00  0.00  0.91  0.00  0.00  0.00  0.00  0.00
  YS02001607YS02001610    1.00   0.09  0.00  0.00  0.91  0.00  0.00  0.00  0.00  0.00
  YS02001610YS02001613    1.00   0.09  0.00  0.00  0.91  0.00  0.00  0.00  0.00  0.00
  YS02001613YS02001616    1.00   0.09  0.00  0.00  0.91  0.00  0.00  0.00  0.00  0.00
  YS02001616YS02001619    1.00   0.08  0.00  0.00  0.92  0.00  0.00  0.00  0.00  0.00
  YS02001619YS02001622    1.00   0.08  0.00  0.00  0.91  0.00  0.00  0.00  0.28  0.00
  YS02001622YS02001625    1.00   0.09  0.00  0.00  0.91  0.00  0.00  0.00  0.01  0.00
  YS02001625YS02001629    1.00   0.09  0.01  0.00  0.42  0.00  0.48  0.00  0.00  0.00
  YS02001629YS02163301    1.00   0.09  0.00  0.00  0.91  0.00  0.00  0.00  0.00  0.00
  YS02001633YS02163601    1.00   0.00  0.01  0.00  0.99  0.00  0.00  0.00  0.13  0.00
  YS02001641YS02001644    1.00   0.00  0.00  0.00  0.99  0.00  0.00  0.00  0.00  0.00
  YS02001644YS02001647    1.00   0.00  0.09  0.00  0.91  0.00  0.00  0.00  0.00  0.00
  YS02001647YS02001649    1.00   0.00  0.09  0.00  0.60  0.31  0.00  0.00  0.55  0.00
  YS02001649YS02001757    1.00   0.00  0.00  0.00  0.67  0.32  0.00  0.00  0.46  0.00
  YS02001652YS02001649    1.00   0.00  0.00  0.00  0.99  0.01  0.00  0.00  0.70  0.00
  YS02001655YS02001652    1.00   0.00  0.00  0.00  0.44  0.01  0.00  0.54  0.11  0.00
  YS02001658YS02001655    1.00   0.00  0.09  0.00  0.59  0.32  0.00  0.00  0.74  0.00
  YS02001661YS02001658    1.00   0.09  0.00  0.00  0.30  0.61  0.00  0.00  0.82  0.00
  YS02001664YS02001661    1.00   0.08  0.00  0.00  0.49  0.42  0.00  0.00  0.87  0.00
  YS02001745YS02001748    1.00   0.00  0.00  0.00  0.02  0.11  0.00  0.86  0.06  0.00
  YS02001748YS02001751    1.00   0.00  0.00  0.00  0.69  0.31  0.00  0.00  0.82  0.00
  YS02001751YS02001754    1.00   0.00  0.00  0.00  0.35  0.03  0.00  0.61  0.08  0.00
  YS02001754YS02001757    1.00   0.00  0.00  0.00  1.00  0.00  0.00  0.00  0.77  0.00
  YS02001757CaochengTiaoxuchi    1.00   0.00  0.00  0.00  0.95  0.05  0.00  0.00  0.78  0.00
  YS02001759YS02001757    1.00   0.00  0.00  0.00  0.99  0.01  0.00  0.00  0.60  0.00
  YS02001762YS02001759    1.00   0.00  0.00  0.00  1.00  0.00  0.00  0.00  0.01  0.00
  YS02001765YS02001762    1.00   0.00  0.00  0.00  1.00  0.00  0.00  0.00  0.69  0.00
  YS02001767YS02001765    1.00   0.00  0.00  0.00  1.00  0.00  0.00  0.00  0.00  0.00
  YS02001770YS02001767    1.00   0.00  0.00  0.00  1.00  0.00  0.00  0.00  0.00  0.00
  YS02001774YS02001770    1.00   0.00  0.08  0.00  0.82  0.00  0.09  0.00  0.01  0.00
  YS02001779YS02001774    1.00   0.00  0.00  0.00  1.00  0.00  0.00  0.00  0.73  0.00
  YS02001783YS02001784    1.00   0.00  0.09  0.00  0.91  0.00  0.00  0.00  0.54  0.00
  YS02001784YS02001785    1.00   0.00  0.00  0.00  1.00  0.00  0.00  0.00  0.13  0.00
  YS02001786YS02001788    1.00   0.00  0.00  0.00  0.45  0.55  0.00  0.00  0.00  0.00
  YS02001788YS02001790    1.00   0.00  0.00  0.00  0.10  0.90  0.00  0.00  0.75  0.00
  YS02001790YS02001791    1.00   0.00  0.00  0.00  0.01  0.99  0.00  0.00  0.25  0.00
  YS02001791YS02001793    1.00   0.00  0.00  0.00  0.00  1.00  0.00  0.00  0.00  0.00
  YS02001793JiankangQianchi    1.00   0.00  0.00  0.00  1.00  0.00  0.00  0.00  1.00  0.00
  YS02001882YS02001884    1.00   0.09  0.00  0.00  0.91  0.00  0.00  0.00  0.00  0.00
  YS02001884YS02001887    1.00   0.05  0.03  0.00  0.92  0.00  0.00  0.00  0.00  0.00
  YS02001887YS02001890    1.00   0.00  0.00  0.00  0.96  0.00  0.03  0.00  0.00  0.00
  YS02001890YS02001895    1.00   0.00  0.09  0.00  0.91  0.00  0.00  0.00  0.00  0.00
  YS02001895YS02001898    1.00   0.09  0.00  0.00  0.91  0.00  0.00  0.00  0.00  0.00
  YS02001898YS02001901    1.00   0.09  0.00  0.00  0.91  0.00  0.00  0.00  0.00  0.00
  YS02001901YS02001904    1.00   0.09  0.00  0.00  0.91  0.00  0.00  0.00  0.00  0.00
  YS02001904YS02001907    1.00   0.00  0.09  0.00  0.91  0.00  0.00  0.00  0.00  0.00
  YS02001907YS02006553    1.00   0.00  0.02  0.00  0.97  0.00  0.00  0.00  0.00  0.00
  YS02001910YS02001907    1.00   0.00  0.00  0.00  0.97  0.00  0.00  0.03  0.11  0.00
  YS02001915YS02001910    1.00   0.00  0.00  0.00  0.98  0.02  0.00  0.00  0.11  0.00
  YS02001918YS02001915    1.00   0.00  0.00  0.00  0.97  0.02  0.00  0.00  0.65  0.00
  YS02001920YS02001918    1.00   0.00  0.00  0.00  1.00  0.00  0.00  0.00  0.00  0.00
  YS02001923YS02001920    1.00   0.00  0.00  0.00  1.00  0.00  0.00  0.00  0.99  0.00
  YS02001926YS02001923    1.00   0.00  0.06  0.00  0.00  0.00  0.94  0.00  0.00  0.00
  YS02001929YS02001926    1.00   0.00  0.08  0.00  0.92  0.00  0.00  0.00  0.87  0.00
  YS02006553YS02006556    1.00   0.01  0.00  0.00  0.99  0.00  0.00  0.00  0.03  0.00
  YS02006556YS02006558    1.00   0.00  0.00  0.00  1.00  0.00  0.00  0.00  0.00  0.00
  YS02006558YS02006561    1.00   0.09  0.00  0.00  0.00  0.91  0.00  0.00  0.17  0.00
  YS02006561YS02001783    1.00   0.09  0.00  0.00  0.12  0.79  0.00  0.00  0.62  0.00
  YS02163301YS02001633    1.00   0.00  0.09  0.00  0.91  0.00  0.00  0.00  0.00  0.00
  YS02163601YS02164001    1.00   0.00  0.06  0.00  0.94  0.00  0.00  0.00  0.00  0.00
  YS02164001YS02001641    1.00   0.01  0.06  0.00  0.93  0.00  0.00  0.00  0.05  0.00
  YSB1154YSB6556          1.00   0.08  0.00  0.00  0.92  0.00  0.00  0.00  0.01  0.00
  YSB1171HS02004479       1.00   0.04  0.00  0.00  0.95  0.00  0.00  0.01  0.09  0.00
  YSB1174YSB1171          1.00   0.05  0.02  0.00  0.93  0.00  0.00  0.00  0.00  0.00
  YSB6556YSB1171          1.00   0.04  0.04  0.00  0.92  0.00  0.00  0.00  0.00  0.00
  
  
  *************************
  Conduit Surcharge Summary
  *************************
  
  ----------------------------------------------------------------------------
                                                           Hours        Hours 
                         --------- Hours Full --------   Above Full   Capacity
  Conduit                Both Ends  Upstream  Dnstream   Normal Flow   Limited
  ----------------------------------------------------------------------------
  HS02004480HS02004478        0.01      0.01      0.01      1.86         0.01
  HS02004785HS02004788        0.01      0.01      0.01      1.45         0.01
  HS02004817HS02004807        0.01      0.01      0.43      0.01         0.01
  HS02004817HS02004824        0.01      0.01      0.43      0.01         0.01
  HS02004876HS02004881        0.01      0.01      0.01      1.65         0.01
  HS02004881HS02006253        0.01      0.01      1.97      0.01         0.01
  WS02003072WS02003073        0.01      0.01      0.01      2.32         0.01
  WS02004401WS02004402        1.84      1.84      1.88      1.63         1.63
  WS02004402WS02004403        1.88      1.88      1.89      1.83         1.82
  WS02004403WS02004404        1.89      1.89      2.01      0.01         0.01
  WS02004404WS02004405        2.00      2.01      2.00      2.93         2.00
  WS02004405WS02004406        1.99      2.00      1.99      2.07         1.99
  WS02004406WS02004407        0.01      0.01      1.99      0.01         0.01
  WS02004409WS02004410        0.01      0.01      0.01      1.71         0.01
  WS02004410WS02004411        0.01      0.01      0.01      1.78         0.01
  WS02004411WS02004412        0.01      0.01      0.01      1.82         0.01
  WS02004412WS02004413        0.01      0.01      1.55      0.01         0.01
  WS02004413WS02003067        0.01      0.01      1.55      0.01         0.01
  WS02006109WS02006110        2.05      2.05      2.18      2.05         0.01
  WS02006110WS02006113        1.13      1.13      2.17      0.01         0.01
  WS02006111WS02006112        1.02      1.02      2.26      0.01         0.01
  WS02006112WS02006115        1.72      1.72      2.09      0.01         0.01
  WS02006113WS02006111        1.07      1.13      1.07      1.63         1.07
  WS02006115WS02006116        1.74      1.74      1.74      1.71         1.69
  WS02006116WS02004401        1.84      1.84      1.84      1.79         1.77
  WS02006228WS02006109        2.15      2.18      2.15      2.46         2.15
  WS02006229WS02006228        2.15      2.16      2.15      2.29         2.15
  WS02006230WS02006229        2.20      2.21      2.20      3.09         2.15
  WS02006231WS02006230        2.02      2.02      2.03      2.82         0.02
  WS02006232WS02006231        2.03      2.03      2.09      0.09         0.01
  WS02006234WS02006232        2.05      2.05      2.09      0.01         0.01
  WS02006235WS02006234        2.03      2.03      2.05      2.59         0.01
  WS02006238WS02006235        2.06      2.06      2.07      0.01         0.01
  WS02006239WS02006238        2.06      2.06      2.06      0.11         0.05
  WS02006240WS02006239        2.03      2.03      2.03      0.11         0.03
  WS02006242WS02006240        2.02      2.03      2.04      0.40         0.01
  WS02006243WS02006242        2.02      2.02      2.03      0.01         0.01
  WS02006245WS02006243        2.01      2.01      2.02      0.11         0.02
  WS02006247WS02006245        2.01      2.01      2.01      1.16         1.05
  WS02006248WS02006247        2.00      2.00      2.01      0.01         0.01
  WS02006249WS02006248        2.00      2.00      2.00      0.55         0.01
  WS02006251WS02006249        2.00      2.00      2.00      2.08         1.96
  WS02006252WS02006251        2.11      2.11      2.11      2.07         0.01
  WS02006253WS02006251        1.99      2.00      1.99      0.01         0.01
  WS02006256WS02006235        2.70      2.71      4.87      2.25         0.01
  YS02001583YS02001586        0.01      0.01      0.61      0.01         0.01
  YS02001586YS02001590        0.65      0.65      0.96      0.01         0.01
  YS02001590YS02001593        0.96      0.96      1.00      1.05         0.01
  YS02001593YS02001596        0.98      0.98      1.22      0.01         0.01
  YS02001596YS02001600        1.49      1.49      1.79      0.01         0.01
  YS02001600YS02001601        1.83      1.83      2.01      0.01         0.01
  YS02001601YS02001602        1.94      1.94      2.03      1.83         0.01
  YS02001602YS02001605        1.90      1.90      1.94      2.57         0.01
  YS02001605YS02001607        1.87      1.90      1.87      1.98         1.87
  YS02001607YS02001610        0.90      0.90      0.95      0.01         0.01
  YS02001610YS02001613        0.88      0.88      0.95      0.01         0.01
  YS02001613YS02001616        0.65      0.65      0.88      0.01         0.01
  YS02001616YS02001619        0.57      0.57      0.65      0.01         0.01
  YS02001619YS02001622        0.55      0.57      0.55      1.05         0.55
  YS02001622YS02001625        0.55      0.55      1.12      0.01         0.01
  YS02001625YS02001629        0.08      0.08      1.12      0.01         0.01
  YS02001629YS02163301        1.09      1.09      1.11      0.35         0.36
  YS02001633YS02163601        1.15      1.15      1.23      0.67         0.70
  YS02001641YS02001644        0.91      0.98      0.91      2.04         0.91
  YS02001644YS02001647        0.01      0.01      0.91      0.01         0.01
  YS02001647YS02001649        0.01      0.01      0.35      0.01         0.01
  YS02001649YS02001757        0.35      0.35      0.60      0.01         0.01
  YS02001652YS02001649        0.01      0.01      0.35      0.01         0.01
  YS02001754YS02001757        0.01      0.01      0.60      0.01         0.01
  YS02001757CaochengTiaoxuchi        0.60      0.60      1.60      0.01         0.01
  YS02001759YS02001757        0.15      0.15      0.60      0.01         0.01
  YS02001762YS02001759        0.01      0.01      0.15      0.01         0.01
  YS02001765YS02001762        0.01      0.01      0.01      0.01         0.01
  YS02001770YS02001767        0.01      0.01      0.01      0.05         0.01
  YS02001783YS02001784        0.01      0.01      0.01      0.51         0.01
  YS02001784YS02001785        0.01      0.01      0.01      1.73         0.01
  YS02001786YS02001788        0.01      0.01      0.01      1.11         0.01
  YS02001793JiankangQianchi        0.01      0.01      7.68      0.01         0.01
  YS02001904YS02001907        0.01      0.01      1.07      0.01         0.01
  YS02001907YS02006553        1.74      1.74      1.79      0.01         0.01
  YS02001910YS02001907        0.01      0.01      1.00      0.01         0.01
  YS02006553YS02006556        0.41      0.41      1.06      0.01         0.01
  YS02006556YS02006558        0.62      0.62      1.10      0.01         0.01
  YS02006558YS02006561        0.01      0.36      0.01      1.51         0.01
  YS02163301YS02001633        1.11      1.11      1.20      0.01         0.01
  YS02163601YS02164001        1.01      1.01      1.23      0.01         0.01
  YS02164001YS02001641        0.98      1.01      0.98      1.41         0.98
  YSB6556YSB1171              0.01      0.01      0.96      0.01         0.01
  
  
  ***************
  Pumping Summary
  ***************
  
  ---------------------------------------------------------------------------------------------------------
                                                  Min       Avg       Max     Total     Power    % Time Off
                        Percent   Number of      Flow      Flow      Flow    Volume     Usage    Pump Curve
  Pump                 Utilized   Start-Ups       LPS       LPS       LPS  10^6 ltr     Kw-hr    Low   High
  ---------------------------------------------------------------------------------------------------------
  CC-R1                   24.54           2      0.00    683.00    683.00     4.827     87.63    0.0   23.5
  CC-R2                   21.91           2      0.00    683.00    683.00     4.309     78.03    0.0   26.4
  CC-S1                   27.01           2      0.00    200.00    200.00     1.556      9.74    0.0    0.0
  CC-S2                   25.81           2      0.00    200.00    200.00     1.486      9.30    0.0    0.0
  JK-R1                    6.85           8      0.00   1000.00   1000.00     1.972     18.66    0.0    0.0
  JK-R2                    0.16           1      0.00   1000.00   1000.00     0.047      0.36    0.0    0.0
  JK-S                    28.09           3      0.00    300.00    300.00     2.427     39.02    0.0    0.0
  XR-1                    97.91           2      0.00     95.00     95.00     2.679      9.62    0.0    0.0
  XR-2                    93.94           2      0.00     95.00     95.00     2.570      8.78    0.0    0.0
  XR-3                     0.00           1      0.00     95.00     95.00     0.000      0.00    0.0    0.0
  XR-4                     0.00           1      0.00     95.00     95.00     0.000      0.00    0.0    0.0
  

  Analysis begun on:  Thu Jul 20 11:19:15 2023
  Analysis ended on:  Thu Jul 20 11:19:21 2023
  Total elapsed time: 00:00:06