
  OWA STORM WATER MANAGEMENT MODEL - VERSION v5.1.14 (OWA 2022-07-31)
  --------------------------------------------------------------

  WARNING 04: minimum elevation drop used for Conduit WS02004404WS02004405
  WARNING 03: negative offset ignored for Link YS02001904YS02001907
  
  *********************************************************
  NOTE: The summary statistics displayed in this report are
  based on results found at every computational time step,  
  not just on results from each reporting time step.
  *********************************************************
  
  ****************
  Analysis Options
  ****************
  Flow Units ............... LPS
  Process Models:
    Rainfall/Runoff ........ YES
    RDII ................... NO
    Snowmelt ............... NO
    Groundwater ............ NO
    Flow Routing ........... YES
    Ponding Allowed ........ NO
    Water Quality .......... NO
  Infiltration Method ...... HORTON
  Flow Routing Method ...... DYNWAVE
  Surcharge Method ......... EXTRAN
  Starting Date ............ 08/28/2015 08:00:00
  Ending Date .............. 08/28/2015 16:00:00
  Antecedent Dry Days ...... 8.0
  Report Time Step ......... 00:01:00
  Wet Time Step ............ 00:01:00
  Dry Time Step ............ 00:01:00
  Routing Time Step ........ 30.00 sec
  Variable Time Step ....... YES
  Maximum Trials ........... 8
  Number of Threads ........ 4
  Head Tolerance ........... 0.001500 m
  
  
  **************************        Volume         Depth
  Runoff Quantity Continuity     hectare-m            mm
  **************************     ---------       -------
  Total Precipitation ......         6.438       106.270
  Evaporation Loss .........         0.000         0.000
  Infiltration Loss ........         0.260         4.293
  Surface Runoff ...........         6.117       100.983
  Final Storage ............         0.061         1.010
  Continuity Error (%) .....        -0.016
  
  
  **************************        Volume        Volume
  Flow Routing Continuity        hectare-m      10^6 ltr
  **************************     ---------     ---------
  Dry Weather Inflow .......         0.630         6.296
  Wet Weather Inflow .......         6.116        61.163
  Groundwater Inflow .......         0.000         0.000
  RDII Inflow ..............         0.000         0.000
  External Inflow ..........         0.105         1.045
  External Outflow .........         3.696        36.958
  Flooding Loss ............         3.109        31.091
  Evaporation Loss .........         0.000         0.000
  Exfiltration Loss ........         0.000         0.000
  Initial Stored Volume ....         0.303         3.031
  Final Stored Volume ......         0.357         3.568
  Continuity Error (%) .....        -0.116
  
  
  *************************
  Highest Continuity Errors
  *************************
  Node YS02001583 (-6.03%)
  Node YS02001884 (4.76%)
  Node YS02001774 (2.33%)
  Node YS02001748 (-1.43%)
  Node HS02004817 (1.10%)
  
  
  ***************************
  Time-Step Critical Elements
  ***************************
  Link WS02006280WS02006229 (33.99%)
  Link YS02001791YS02001793 (20.24%)
  Link WS02006238WS02006235 (9.20%)
  Link YS02001783YS02001784 (6.40%)
  Link WS02004404WS02004405 (6.14%)
  
  
  ********************************
  Highest Flow Instability Indexes
  ********************************
  Link WS02006252WS02006251 (45)
  Link WS02006238WS02006235 (44)
  Link YS02001602YS02001605 (43)
  Link WS02004404WS02004405 (43)
  Link WS02006229WS02006228 (42)
  
  
  *************************
  Routing Time Step Summary
  *************************
  Minimum Time Step           :     0.01 sec
  Average Time Step           :     2.48 sec
  Maximum Time Step           :     6.46 sec
  Percent in Steady State     :     0.00
  Average Iterations per Step :     4.48
  Percent Not Converging      :    28.71
  
  
  ***************************
  Subcatchment Runoff Summary
  ***************************
  
  ------------------------------------------------------------------------------------------------------------------------------
                            Total      Total      Total      Total     Imperv       Perv      Total       Total     Peak  Runoff
                           Precip      Runon       Evap      Infil     Runoff     Runoff     Runoff      Runoff   Runoff   Coeff
  Subcatchment                 mm         mm         mm         mm         mm         mm         mm    10^6 ltr      LPS
  ------------------------------------------------------------------------------------------------------------------------------
  sub0                     106.27       0.00       0.00       1.06      97.60       6.38     103.98        0.08    17.00   0.978
  sub1                     106.27       0.00       0.00       1.84      93.34       9.85     103.18        0.69   136.08   0.971
  sub10                    106.27       0.00       0.00       1.29      96.49       7.21     103.70        1.14   227.81   0.976
  sub11                    106.27       0.00       0.00       1.27      96.51       7.24     103.75        1.21   241.90   0.976
  sub12                    106.27       0.00       0.00       2.06      91.29      11.75     103.05        0.90   182.10   0.970
  sub14                    106.27       0.00       0.00       1.45      95.45       8.11     103.57        0.99   197.21   0.975
  sub15                    106.27       0.00       0.00       5.72      73.42      26.16      99.58        1.71   322.40   0.937
  sub16                    106.27       0.00       0.00       5.93      70.30      29.15      99.45        1.04   202.67   0.936
  sub17                    106.27       0.00       0.00       5.78      71.35      28.23      99.58        0.85   165.87   0.937
  sub2                     106.27       0.00       0.00       8.12      66.05      31.20      97.25        0.91   152.85   0.915
  sub22                    106.27       0.00       0.00       8.65      59.80      37.05      96.85        6.12  1080.16   0.911
  sub23                    106.27       0.00       0.00       7.07      66.09      32.25      98.35        4.69   872.56   0.925
  sub3                     106.27       0.00       0.00       8.80      66.00      30.52      96.52        2.17   348.42   0.908
  sub4                     106.27       0.00       0.00       2.06      93.15       9.63     102.79        2.14   384.92   0.967
  sub5                     106.27       0.00       0.00       1.13      97.53       6.31     103.84        1.18   233.50   0.977
  sub60                    106.27       0.00       0.00       1.95      92.32      10.80     103.12        1.36   272.41   0.970
  sub61                    106.27       0.00       0.00       2.84      87.08      15.23     102.31        1.88   376.96   0.963
  sub62                    106.27       0.00       0.00       1.30      96.48       7.20     103.69        2.84   564.46   0.976
  sub63                    106.27       0.00       0.00       5.26      74.49      25.56     100.05        2.27   440.86   0.941
  sub64                    106.27       0.00       0.00       2.66      89.12      13.29     102.41        2.46   479.47   0.964
  sub65                    106.27       0.00       0.00       2.30      91.20      11.52     102.72        2.83   547.07   0.967
  sub66                    106.27       0.00       0.00       6.45      74.37      24.37      98.73        4.60   776.30   0.929
  sub67                    106.27       0.00       0.00       1.24      96.54       7.27     103.80        1.93   389.28   0.977
  sub68                    106.27       0.00       0.00       2.35      90.21      12.53     102.74        2.83   564.56   0.967
  sub69                    106.27       0.00       0.00       2.15      90.22      13.79     104.01        3.85   736.18   0.979
  sub7                     106.27       0.00       0.00       1.43      95.47       8.14     103.61        0.35    70.25   0.975
  sub70                    106.27       0.00       0.00       7.03      69.96      29.11      99.07        2.86   455.12   0.932
  sub71                    106.27       0.00       0.00       1.34      96.44       7.16     103.60        2.71   526.91   0.975
  sub72                    106.27       0.00       0.00       1.19      97.42       6.25     103.67        1.43   268.16   0.975
  sub8                     106.27       0.00       0.00       1.44      95.46       8.12     103.58        0.66   132.66   0.975
  sub9                     106.27       0.00       0.00       1.45      95.46       8.12     103.57        0.50    99.74   0.975
  
  
  ******************
  Node Depth Summary
  ******************
  
  ---------------------------------------------------------------------------------
                                 Average  Maximum  Maximum  Time of Max    Reported
                                   Depth    Depth      HGL   Occurrence   Max Depth
  Node                 Type       Meters   Meters   Meters  days hr:min      Meters
  ---------------------------------------------------------------------------------
  HS02004478           JUNCTION     0.50     1.60    10.83     0  01:11        1.47
  HS02004479           JUNCTION     0.60     1.77    10.97     0  01:11        1.70
  HS02004480           JUNCTION     0.57     1.74    10.98     0  01:11        1.61
  HS02004770           JUNCTION     0.56     1.42    11.25     0  01:11        1.42
  HS02004777           JUNCTION     0.58     1.48    11.28     0  01:11        1.46
  HS02004785           JUNCTION     0.47     1.45    11.35     0  01:11        1.32
  HS02004788           JUNCTION     0.44     1.42    11.32     0  01:11        1.32
  HS02004792           JUNCTION     0.56     1.60    11.12     0  01:09        1.60
  HS02004799           JUNCTION     0.66     1.76    10.97     0  01:11        1.76
  HS02004802           JUNCTION     0.60     1.76    10.89     0  01:15        1.61
  HS02004807           JUNCTION     0.56     1.92    11.09     0  01:15        1.61
  HS02004817           JUNCTION     0.87     2.43    11.28     0  01:15        1.95
  HS02004824           JUNCTION     0.41     2.01    11.41     0  01:15        1.41
  HS02004830           JUNCTION     0.40     2.03    11.50     0  01:15        1.33
  HS02004837           JUNCTION     0.35     2.04    11.62     0  01:15        1.22
  HS02004842           JUNCTION     0.64     2.22    11.49     0  01:15        1.54
  HS02004848           JUNCTION     0.32     2.07    11.67     0  01:15        1.19
  HS02004852           JUNCTION     0.34     2.12    11.63     0  01:15        1.23
  HS02004856           JUNCTION     0.39     2.07    11.50     0  01:15        1.26
  HS02004862           JUNCTION     0.36     2.00    11.38     0  01:15        1.25
  HS02004870           JUNCTION     0.36     1.97    11.25     0  01:15        1.26
  HS02004876           JUNCTION     0.44     2.03    11.06     0  01:15        1.41
  HS02004881           JUNCTION     0.38     1.77    10.80     0  01:15        1.25
  HS02004901           JUNCTION     0.57     1.42    11.24     0  01:11        1.42
  WS02001211           JUNCTION     0.67     0.86     5.69     0  01:20        0.85
  WS02001212           JUNCTION     0.42     0.64     5.70     0  01:19        0.57
  WS02001213           JUNCTION     0.65     0.97     5.73     0  01:19        0.95
  WS02003059           JUNCTION     0.72     0.97     5.65     0  01:21        0.95
  WS02003060           JUNCTION     0.45     0.69     5.62     0  01:22        0.69
  WS02003066           JUNCTION     0.28     0.45     6.01     0  01:13        0.45
  WS02003067           JUNCTION     0.62     0.95     6.27     0  01:13        0.89
  WS02003069           JUNCTION     0.51     0.77     5.36     0  01:22        0.77
  WS02003072           JUNCTION     0.56     0.81     5.18     0  01:21        0.80
  WS02003073           JUNCTION     0.34     0.51     4.58     0  01:22        0.51
  WS02004138           JUNCTION     0.13     0.14     7.39     0  00:29        0.14
  WS02004139           JUNCTION     0.61     0.78     5.69     0  01:17        0.77
  WS02004401           JUNCTION     0.99     2.66     8.66     0  01:11        1.87
  WS02004402           JUNCTION     0.99     2.74     8.70     0  01:11        1.69
  WS02004403           JUNCTION     0.97     3.03     8.96     0  01:11        1.68
  WS02004404           JUNCTION     1.03     3.61     9.46     0  01:11        1.69
  WS02004405           JUNCTION     1.01     3.11     8.96     0  01:11        1.61
  WS02004406           JUNCTION     0.97     2.72     8.55     0  01:11        1.49
  WS02004407           JUNCTION     0.39     0.85     7.16     0  01:15        0.84
  WS02004409           JUNCTION     0.71     1.40     7.17     0  01:13        1.34
  WS02004410           JUNCTION     0.70     1.54     7.26     0  01:13        1.25
  WS02004411           JUNCTION     0.68     1.44     7.12     0  01:13        1.18
  WS02004412           JUNCTION     0.67     1.13     6.77     0  01:14        1.11
  WS02004413           JUNCTION     0.78     2.40     7.87     0  01:13        1.13
  WS02006109           JUNCTION     1.39     2.64     9.26     0  01:11        2.64
  WS02006110           JUNCTION     1.26     2.57     9.16     0  01:11        2.35
  WS02006111           JUNCTION     0.70     2.08     8.79     0  01:11        1.61
  WS02006112           JUNCTION     1.26     2.68     8.56     0  01:11        2.22
  WS02006113           JUNCTION     0.79     2.15     9.04     0  01:11        1.74
  WS02006115           JUNCTION     0.95     3.09     9.22     0  01:11        1.81
  WS02006116           JUNCTION     1.00     3.05     9.09     0  01:11        1.84
  WS02006228           JUNCTION     1.51     3.03     9.68     0  01:11        3.03
  WS02006229           JUNCTION     1.55     3.25     9.94     0  01:11        3.25
  WS02006230           JUNCTION     1.39     2.65     9.39     0  01:10        2.65
  WS02006231           JUNCTION     1.06     2.24     9.36     0  01:09        2.24
  WS02006232           JUNCTION     1.13     2.18     9.22     0  01:09        2.18
  WS02006234           JUNCTION     0.99     1.96     9.12     0  01:10        1.96
  WS02006235           JUNCTION     0.99     2.00     9.16     0  01:10        2.00
  WS02006238           JUNCTION     1.01     2.15     9.29     0  01:10        2.15
  WS02006239           JUNCTION     0.93     2.03     9.24     0  01:10        1.88
  WS02006240           JUNCTION     0.86     2.10     9.39     0  01:10        1.65
  WS02006242           JUNCTION     0.87     1.55     8.82     0  01:10        1.55
  WS02006243           JUNCTION     0.75     1.48     8.90     0  01:10        1.48
  WS02006245           JUNCTION     0.71     1.48     8.96     0  01:11        1.39
  WS02006247           JUNCTION     0.70     1.47     8.97     0  01:11        1.26
  WS02006248           JUNCTION     0.64     1.10     8.69     0  01:11        1.10
  WS02006249           JUNCTION     0.65     1.09     8.69     0  01:11        1.09
  WS02006251           JUNCTION     0.98     2.15     9.82     0  01:15        2.08
  WS02006252           JUNCTION     0.70     1.50     9.74     0  00:00        1.50
  WS02006253           JUNCTION     1.14     3.52    11.16     0  01:11        2.58
  WS02006256           JUNCTION     1.37     2.35     9.28     0  00:00        2.35
  WS02006280           JUNCTION     0.63     1.83    10.10     0  01:11        1.74
  WS02006284           JUNCTION     0.86     2.07    10.47     0  01:11        2.02
  WS02006287           JUNCTION     0.59     1.81    10.77     0  01:11        1.63
  WSF200               JUNCTION     0.29     0.59     5.82     0  01:13        0.58
  YS02001580           JUNCTION     0.27     1.05     9.59     0  01:12        0.77
  YS02001583           JUNCTION     0.31     0.98     9.47     0  01:12        0.82
  YS02001586           JUNCTION     0.45     1.13     9.30     0  01:12        1.13
  YS02001590           JUNCTION     0.58     1.40     9.26     0  02:03        1.40
  YS02001593           JUNCTION     0.51     1.46     9.32     0  01:10        1.46
  YS02001596           JUNCTION     0.67     1.80     9.22     0  01:10        1.80
  YS02001600           JUNCTION     0.78     1.87     9.00     0  01:10        1.87
  YS02001601           JUNCTION     0.97     2.06     8.90     0  01:10        2.06
  YS02001602           JUNCTION     0.85     1.87     8.77     0  01:10        1.87
  YS02001605           JUNCTION     0.80     1.78     8.68     0  01:45        1.78
  YS02001607           JUNCTION     0.77     1.68     8.53     0  01:45        1.68
  YS02001610           JUNCTION     0.81     1.68     8.48     0  01:12        1.68
  YS02001613           JUNCTION     0.77     1.70     8.54     0  01:45        1.70
  YS02001616           JUNCTION     0.70     1.61     8.52     0  01:12        1.61
  YS02001619           JUNCTION     0.68     1.61     8.54     0  01:12        1.60
  YS02001622           JUNCTION     0.67     1.57     8.48     0  01:13        1.57
  YS02001625           JUNCTION     0.92     1.78     8.38     0  01:12        1.78
  YS02001629           JUNCTION     0.84     1.85     8.40     0  01:12        1.85
  YS02001633           JUNCTION     0.92     2.04     8.50     0  02:03        1.98
  YS02001641           JUNCTION     0.89     2.03     8.47     0  02:03        1.95
  YS02001644           JUNCTION     0.88     1.92     8.35     0  01:23        1.92
  YS02001647           JUNCTION     0.67     1.71     8.32     0  01:32        1.71
  YS02001649           JUNCTION     0.76     1.88     8.27     0  02:07        1.87
  YS02001652           JUNCTION     0.63     1.69     8.28     0  01:23        1.63
  YS02001655           JUNCTION     0.51     1.59     8.44     0  01:22        1.38
  YS02001658           JUNCTION     0.38     1.53     8.67     0  01:22        1.07
  YS02001661           JUNCTION     0.31     0.79     8.19     0  02:13        0.79
  YS02001664           JUNCTION     0.09     0.25     8.18     0  01:27        0.25
  YS02001745           JUNCTION     0.19     0.66     8.18     0  02:08        0.63
  YS02001748           JUNCTION     0.37     1.39     8.47     0  01:46        1.15
  YS02001751           JUNCTION     0.46     1.41     8.29     0  01:46        1.40
  YS02001754           JUNCTION     0.59     1.66     8.26     0  01:32        1.66
  YS02001757           JUNCTION     0.80     1.97     8.23     0  02:07        1.94
  YS02001759           JUNCTION     0.73     1.98     8.34     0  02:07        1.90
  YS02001762           JUNCTION     0.72     2.00     8.40     0  02:07        1.89
  YS02001765           JUNCTION     0.69     1.98     8.43     0  02:07        1.87
  YS02001767           JUNCTION     0.68     1.94     8.43     0  02:07        1.87
  YS02001770           JUNCTION     0.69     1.92     8.42     0  01:32        1.92
  YS02001774           JUNCTION     0.75     2.00     8.42     0  03:02        2.00
  YS02001779           JUNCTION     0.57     1.68     8.37     0  01:16        1.68
  YS02001783           JUNCTION     0.45     1.29     7.44     0  01:15        1.22
  YS02001784           JUNCTION     0.44     1.17     7.23     0  01:45        1.17
  YS02001786           JUNCTION     0.36     0.91     6.94     0  01:15        0.86
  YS02001788           JUNCTION     0.26     0.62     6.59     0  01:29        0.62
  YS02001790           JUNCTION     0.30     0.72     6.37     0  01:22        0.72
  YS02001791           JUNCTION     0.18     0.44     5.91     0  01:17        0.43
  YS02001793           JUNCTION     0.09     0.30     5.13     0  01:59        0.28
  YS02001882           JUNCTION     0.56     1.83     8.55     0  02:07        1.83
  YS02001884           JUNCTION     0.65     1.93     8.55     0  02:07        1.93
  YS02001887           JUNCTION     0.72     1.85     8.38     0  01:15        1.81
  YS02001890           JUNCTION     0.75     1.81     8.32     0  01:15        1.81
  YS02001895           JUNCTION     0.53     1.68     8.43     0  02:07        1.68
  YS02001898           JUNCTION     0.53     1.76     8.50     0  02:07        1.76
  YS02001901           JUNCTION     0.65     1.87     8.48     0  02:07        1.87
  YS02001904           JUNCTION     0.63     1.80     8.43     0  02:07        1.80
  YS02001907           JUNCTION     0.94     1.96     8.25     0  01:15        1.96
  YS02001910           JUNCTION     0.75     2.08     8.59     0  01:14        2.08
  YS02001915           JUNCTION     0.56     1.98     8.70     0  01:14        1.98
  YS02001918           JUNCTION     0.37     1.78     8.85     0  01:16        1.37
  YS02001920           JUNCTION     0.44     1.93     8.94     0  01:16        1.45
  YS02001923           JUNCTION     0.29     1.75     9.01     0  01:16        1.22
  YS02001926           JUNCTION     0.28     1.63     9.08     0  01:16        1.07
  YS02001929           JUNCTION     0.17     1.45     9.15     0  01:16        0.88
  YS02006553           JUNCTION     0.94     2.02     8.31     0  01:45        2.02
  YS02006556           JUNCTION     0.91     2.05     8.37     0  01:45        2.05
  YS02006558           JUNCTION     0.95     1.99     8.26     0  01:15        1.99
  YS02006561           JUNCTION     0.29     0.98     7.64     0  01:15        0.87
  YS02163301           JUNCTION     0.87     1.97     8.49     0  01:12        1.90
  YS02163601           JUNCTION     0.95     2.08     8.48     0  01:45        2.02
  YS02164001           JUNCTION     0.88     2.05     8.51     0  02:03        1.95
  YSB1154              JUNCTION     0.74     2.06    11.11     0  01:45        2.06
  YSB1171              JUNCTION     0.89     1.95    10.85     0  01:11        1.95
  YSB1174              JUNCTION     0.69     1.84    10.95     0  01:11        1.77
  YSB6556              JUNCTION     0.64     1.80    10.97     0  01:11        1.80
  CC-1                 OUTFALL      0.00     0.00     0.00     0  00:00        0.00
  CC-2                 OUTFALL      0.00     0.00     0.00     0  00:00        0.00
  JK-1                 OUTFALL      0.00     0.00     0.00     0  00:00        0.00
  JK-2                 OUTFALL      0.00     0.00     0.00     0  00:00        0.00
  WSC                  OUTFALL      0.34     0.51     1.18     0  01:22        0.51
  CC-storage           STORAGE      1.17     2.08     7.58     0  03:00        2.08
  JK-storage           STORAGE      2.29     4.24     5.04     0  01:59        4.17
  XR-storage           STORAGE      7.87     9.26     7.26     0  08:00        9.26
  
  
  *******************
  Node Inflow Summary
  *******************
  
  -------------------------------------------------------------------------------------------------
                                  Maximum  Maximum                  Lateral       Total        Flow
                                  Lateral    Total  Time of Max      Inflow      Inflow     Balance
                                   Inflow   Inflow   Occurrence      Volume      Volume       Error
  Node                 Type           LPS      LPS  days hr:min    10^6 ltr    10^6 ltr     Percent
  -------------------------------------------------------------------------------------------------
  HS02004478           JUNCTION      0.00  2315.75     0  01:11           0        15.8      -0.011
  HS02004479           JUNCTION      0.00   394.10     0  01:17           0        2.01       0.034
  HS02004480           JUNCTION      0.00  2115.60     0  01:12           0        13.3       0.006
  HS02004770           JUNCTION    872.56   872.56     0  01:27        4.69        5.02       0.056
  HS02004777           JUNCTION      0.03   753.95     0  01:11    0.000864        3.61       0.146
  HS02004785           JUNCTION      0.15   753.97     0  01:11     0.00432        3.61       0.014
  HS02004788           JUNCTION    324.07   960.89     0  01:11        1.76        5.37       0.002
  HS02004792           JUNCTION   1080.44  1767.44     0  01:28        6.12        11.5       0.000
  HS02004799           JUNCTION    197.21  1782.86     0  01:11       0.986        11.3       0.050
  HS02004802           JUNCTION      0.00   576.86     0  01:27           0        2.59       0.132
  HS02004807           JUNCTION    241.90   576.64     0  01:27        1.21        2.64       0.167
  HS02004817           JUNCTION      0.60   460.73     0  01:12      0.0173        1.51       1.109
  HS02004824           JUNCTION    384.97   657.05     0  01:12        2.15        2.55       0.014
  HS02004830           JUNCTION      0.15   689.56     0  01:12     0.00432        1.46       0.060
  HS02004837           JUNCTION    234.16   856.48     0  01:12        1.33        2.58       0.020
  HS02004842           JUNCTION      0.00   834.16     0  01:12           0        2.37       0.555
  HS02004848           JUNCTION    348.42  1030.78     0  01:12        2.17        4.42      -0.005
  HS02004852           JUNCTION      0.00   996.15     0  01:13           0        4.32      -0.001
  HS02004856           JUNCTION     99.74  1072.54     0  01:15       0.498        4.82       0.033
  HS02004862           JUNCTION    153.05  1160.08     0  01:15       0.912        5.73       0.005
  HS02004870           JUNCTION    132.66  1258.60     0  01:14       0.662        6.39       0.005
  HS02004876           JUNCTION    136.08  1392.01     0  01:14       0.686        7.07       0.012
  HS02004881           JUNCTION     70.25  1366.70     0  01:14       0.349        7.42       0.012
  HS02004901           JUNCTION    202.67   468.31     0  01:26        1.04        2.06       0.087
  WS02001211           JUNCTION      7.35   356.72     0  01:18       0.212        5.45       0.609
  WS02001212           JUNCTION      0.00   468.89     0  01:15           0        5.43       0.289
  WS02001213           JUNCTION      0.00   436.62     0  01:15           0        5.42       0.321
  WS02003059           JUNCTION      0.00   488.54     0  01:14           0        5.43       0.588
  WS02003060           JUNCTION     16.53  1591.48     0  01:14       0.476        17.9       0.082
  WS02003066           JUNCTION      0.00  1256.48     0  01:15           0          12       0.012
  WS02003067           JUNCTION      0.00  1249.86     0  01:26           0          12       0.035
  WS02003069           JUNCTION      0.32  1491.37     0  01:22     0.00922        17.8       0.087
  WS02003072           JUNCTION      0.00  1483.02     0  01:22           0        17.8       0.117
  WS02003073           JUNCTION      1.82  1484.44     0  01:21      0.0524        17.8       0.120
  WS02004138           JUNCTION      0.00   380.00     0  00:00           0        5.25       0.052
  WS02004139           JUNCTION      0.32   311.70     0  01:17     0.00924        5.26       0.508
  WS02004401           JUNCTION      0.00  1278.19     0  01:13           0        12.1       0.084
  WS02004402           JUNCTION      0.00  1278.31     0  01:13           0        12.1       0.082
  WS02004403           JUNCTION      0.00  1278.34     0  01:13           0        12.1       0.084
  WS02004404           JUNCTION      0.16  1278.63     0  01:13     0.00467        12.1       0.072
  WS02004405           JUNCTION      0.04  1280.38     0  01:13      0.0011        12.1       0.102
  WS02004406           JUNCTION      0.00  1282.21     0  01:13           0        12.1       0.172
  WS02004407           JUNCTION      0.00  1282.65     0  01:13           0        12.1       0.011
  WS02004409           JUNCTION      0.00  1360.47     0  01:12           0        12.1       0.030
  WS02004410           JUNCTION      0.00  1411.55     0  01:12           0          12       0.035
  WS02004411           JUNCTION      0.00  1317.44     0  01:12           0          12       0.047
  WS02004412           JUNCTION      0.00  1250.17     0  01:27           0          12       0.063
  WS02004413           JUNCTION      0.00  1253.96     0  01:13           0          12       0.096
  WS02006109           JUNCTION      1.23  1276.53     0  01:11      0.0354        11.8       0.065
  WS02006110           JUNCTION      0.00  1275.49     0  01:11           0        11.3       0.064
  WS02006111           JUNCTION      0.00  1279.45     0  01:11           0        11.3       0.001
  WS02006112           JUNCTION    165.87  1343.32     0  01:11       0.854        12.1       0.166
  WS02006113           JUNCTION      0.00  1275.15     0  01:11           0        11.3       0.022
  WS02006115           JUNCTION      0.00  1332.41     0  01:11           0        12.1       0.054
  WS02006116           JUNCTION      0.00  1297.78     0  01:11           0        12.1      -0.004
  WS02006228           JUNCTION      0.00  1279.84     0  01:11           0        11.7       0.025
  WS02006229           JUNCTION      0.00  2222.61     0  01:26           0        17.8       0.036
  WS02006230           JUNCTION     10.28   985.57     0  01:27       0.296        8.24       0.119
  WS02006231           JUNCTION      0.00   668.39     0  01:09           0        5.11      -0.119
  WS02006232           JUNCTION      0.00   656.46     0  01:09           0        5.09       0.070
  WS02006234           JUNCTION      0.00   656.27     0  01:09           0        5.06       0.010
  WS02006235           JUNCTION      0.00   681.64     0  01:09           0        4.84      -0.027
  WS02006238           JUNCTION      0.00   680.97     0  01:09           0        4.53      -0.068
  WS02006239           JUNCTION      0.00   733.47     0  01:10           0        4.49      -0.069
  WS02006240           JUNCTION      0.00   904.28     0  01:10           0        4.44      -0.075
  WS02006242           JUNCTION      0.00   844.89     0  01:10           0        4.41      -0.032
  WS02006243           JUNCTION      0.00   773.28     0  01:10           0        3.43      -0.016
  WS02006245           JUNCTION      0.00   419.18     0  03:54           0        3.42       0.223
  WS02006247           JUNCTION      0.00   570.03     0  01:11           0        3.42       0.010
  WS02006248           JUNCTION      0.00   516.94     0  01:11           0        3.88       0.023
  WS02006249           JUNCTION      0.00  1322.80     0  01:27           0        10.8       0.044
  WS02006251           JUNCTION      0.08  1330.34     0  01:15     0.00222        10.8      -0.021
  WS02006252           JUNCTION      0.00   400.00     0  00:00           0        4.24      -0.002
  WS02006253           JUNCTION     17.00  1327.19     0  01:15      0.0842        7.52       0.002
  WS02006256           JUNCTION      0.00   300.00     0  00:00           0        2.58      -0.096
  WS02006280           JUNCTION      0.00  2221.35     0  01:26           0        15.8      -0.017
  WS02006284           JUNCTION      0.10  2220.73     0  01:27     0.00275        15.8       0.006
  WS02006287           JUNCTION      0.00  2221.32     0  01:28           0        15.8       0.048
  WSF200               JUNCTION      0.00  1254.05     0  01:18           0          12       0.006
  YS02001580           JUNCTION      0.00   126.49     0  01:12           0     0.00464      -2.122
  YS02001583           JUNCTION      0.00   181.19     0  01:11           0      0.0156      -5.687
  YS02001586           JUNCTION    455.12   455.30     0  01:44        2.86        2.87       0.066
  YS02001590           JUNCTION      0.00   318.20     0  02:03           0        2.47      -0.020
  YS02001593           JUNCTION      0.00   320.48     0  01:45           0        2.47       0.006
  YS02001596           JUNCTION      0.00   318.08     0  01:49           0        2.47      -0.020
  YS02001600           JUNCTION      0.00   318.08     0  02:09           0        2.47       0.011
  YS02001601           JUNCTION    736.18  1054.52     0  01:27        3.85        6.32       0.009
  YS02001602           JUNCTION      0.00   588.60     0  01:11           0        3.44       0.011
  YS02001605           JUNCTION      0.00   588.29     0  01:12           0        3.04       0.016
  YS02001607           JUNCTION      0.00   588.22     0  01:11           0        3.04       0.055
  YS02001610           JUNCTION      0.00   576.32     0  01:11           0        3.04       0.093
  YS02001613           JUNCTION      0.00   556.85     0  01:12           0        2.02       0.088
  YS02001616           JUNCTION      0.00   518.37     0  01:11           0        2.03       0.020
  YS02001619           JUNCTION    776.30   938.13     0  01:12         4.6        6.62      -0.002
  YS02001622           JUNCTION      0.00   946.59     0  01:12           0        6.61      -0.008
  YS02001625           JUNCTION      0.00   952.46     0  01:12           0        6.61       0.193
  YS02001629           JUNCTION      0.00   956.88     0  01:12           0        3.75      -0.047
  YS02001633           JUNCTION    547.27  1342.99     0  01:15        2.83        6.59       0.054
  YS02001641           JUNCTION      0.00  1344.82     0  01:15           0        6.59       0.056
  YS02001644           JUNCTION    479.51  1741.52     0  01:15        2.46        9.04       0.040
  YS02001647           JUNCTION      0.00  1741.34     0  01:15           0        9.02       0.014
  YS02001649           JUNCTION      0.00  2111.02     0  01:14           0        11.3       0.006
  YS02001652           JUNCTION      0.00   487.92     0  01:45           0        2.28      -0.099
  YS02001655           JUNCTION      0.15   556.67     0  01:17     0.00443        2.28       0.113
  YS02001658           JUNCTION      0.00   741.65     0  01:22           0        2.27      -0.159
  YS02001661           JUNCTION      0.00   440.86     0  01:27           0        2.27       0.016
  YS02001664           JUNCTION    440.86   440.86     0  01:27        2.27        2.27      -0.015
  YS02001745           JUNCTION    272.42   412.05     0  01:35        1.35         1.4       0.148
  YS02001748           JUNCTION      0.04   634.58     0  01:28      0.0013         1.4      -1.414
  YS02001751           JUNCTION      0.01   442.68     0  01:19    0.000317        1.38       0.135
  YS02001754           JUNCTION      0.26   351.46     0  01:45     0.00749        1.38      -0.086
  YS02001757           JUNCTION      0.00  2980.39     0  01:19           0        17.4       0.032
  YS02001759           JUNCTION    377.00   978.35     0  01:17        1.88        4.73      -0.002
  YS02001762           JUNCTION      0.00   615.43     0  01:17           0        2.86       0.027
  YS02001765           JUNCTION      0.00   607.70     0  01:17           0        2.86       0.028
  YS02001767           JUNCTION      0.54   604.16     0  01:17      0.0154        2.86       0.030
  YS02001770           JUNCTION    564.61   609.59     0  01:17        2.84         2.9       0.029
  YS02001774           JUNCTION      0.00   158.66     0  01:13           0       0.084       2.387
  YS02001779           JUNCTION      0.01   123.66     0  01:16    0.000144      0.0273      -0.025
  YS02001783           JUNCTION      0.00  1148.79     0  01:25           0         7.9       0.003
  YS02001784           JUNCTION      1.06  1149.86     0  01:25      0.0305        7.93       0.006
  YS02001786           JUNCTION      0.06  1149.50     0  01:25     0.00162        7.93       0.008
  YS02001788           JUNCTION      0.07  1149.67     0  01:25     0.00204        7.94       0.004
  YS02001790           JUNCTION      0.15  1161.46     0  01:24     0.00446        7.94       0.010
  YS02001791           JUNCTION      0.00  1277.49     0  01:40           0        7.94      -0.031
  YS02001793           JUNCTION      0.00  1236.59     0  01:18           0        7.94       0.005
  YS02001882           JUNCTION      0.00    79.72     0  01:10           0       0.014       4.149
  YS02001884           JUNCTION      0.00   146.30     0  01:10           0      0.0507       5.003
  YS02001887           JUNCTION    389.73   394.33     0  01:14        1.94        1.98       0.210
  YS02001890           JUNCTION      0.00   401.72     0  01:14           0        1.94       0.267
  YS02001895           JUNCTION      0.00   408.84     0  01:14           0        1.93       0.153
  YS02001898           JUNCTION      0.00   418.67     0  01:14           0        1.93      -0.051
  YS02001901           JUNCTION      0.00   434.72     0  01:14           0        1.94       0.167
  YS02001904           JUNCTION      0.00   437.16     0  01:14           0        1.95       0.134
  YS02001907           JUNCTION      0.00  1279.52     0  01:17           0        6.17       0.291
  YS02001910           JUNCTION      0.00   901.68     0  01:17           0        4.22       0.169
  YS02001915           JUNCTION    526.93   901.16     0  01:17        2.71        4.26       0.034
  YS02001918           JUNCTION      0.00   440.92     0  01:17           0        1.57       0.011
  YS02001920           JUNCTION      2.87   440.51     0  01:17      0.0827        1.55       0.059
  YS02001923           JUNCTION      0.04   392.92     0  01:17     0.00109        1.45      -0.017
  YS02001926           JUNCTION      0.05   534.29     0  01:15      0.0015        1.44      -0.011
  YS02001929           JUNCTION    268.16   294.40     0  01:16        1.43        1.43      -0.022
  YS02006553           JUNCTION      0.00   781.22     0  02:18           0        5.13       0.230
  YS02006556           JUNCTION      0.00   780.97     0  02:18           0        5.15       0.154
  YS02006558           JUNCTION    565.44  1149.73     0  01:25        2.85        7.96       0.045
  YS02006561           JUNCTION      0.00  1148.84     0  01:25           0         7.9       0.001
  YS02163301           JUNCTION      0.00   912.12     0  01:14           0        3.76       0.043
  YS02163601           JUNCTION      0.11  1343.40     0  01:15     0.00317        6.58       0.077
  YS02164001           JUNCTION      0.00  1343.91     0  01:15           0        6.58       0.053
  YSB1154              JUNCTION    233.50   233.50     0  01:26        1.18        1.18       0.115
  YSB1171              JUNCTION      0.00   416.11     0  01:25           0        2.09       0.306
  YSB1174              JUNCTION    182.10   182.10     0  01:25         0.9       0.901       0.125
  YSB6556              JUNCTION      0.00   233.84     0  01:26           0        1.18       0.091
  CC-1                 OUTFALL       0.00   683.00     0  00:00           0        6.99       0.000
  CC-2                 OUTFALL       0.00   683.00     0  00:00           0        6.78       0.000
  JK-1                 OUTFALL       0.00  1000.00     0  00:00           0        5.32       0.000
  JK-2                 OUTFALL       0.00  1000.00     0  00:00           0      0.0484       0.000
  WSC                  OUTFALL       0.00  1483.62     0  01:22           0        17.8       0.000
  CC-storage           STORAGE       0.00  2979.41     0  01:18           0        19.6      -0.135
  JK-storage           STORAGE       0.00  1257.03     0  02:05           0        8.09      -0.020
  XR-storage           STORAGE     200.00   200.00     0  00:00        5.76        6.36       0.001
  
  
  **********************
  Node Surcharge Summary
  **********************
  
  Surcharging occurs when water rises above the top of the highest conduit.
  ---------------------------------------------------------------------
                                               Max. Height   Min. Depth
                                   Hours       Above Crown    Below Rim
  Node                 Type      Surcharged         Meters       Meters
  ---------------------------------------------------------------------
  HS02004478           JUNCTION        1.81          0.678        0.262
  HS02004479           JUNCTION        1.90          0.969        0.081
  HS02004480           JUNCTION        1.92          1.026        0.074
  HS02004770           JUNCTION        1.87          0.720        0.000
  HS02004777           JUNCTION        1.87          0.780        0.000
  HS02004785           JUNCTION        1.83          0.751        0.039
  HS02004788           JUNCTION        1.82          0.720        0.000
  HS02004792           JUNCTION        1.90          0.900        0.000
  HS02004799           JUNCTION        1.96          1.060        0.000
  HS02004802           JUNCTION        1.92          1.055        0.155
  HS02004807           JUNCTION        1.90          1.220        0.000
  HS02004817           JUNCTION        2.11          1.734        0.006
  HS02004824           JUNCTION        1.82          1.310        0.000
  HS02004830           JUNCTION        1.80          1.330        0.000
  HS02004837           JUNCTION        1.39          1.340        0.000
  HS02004842           JUNCTION        1.85          1.520        0.000
  HS02004848           JUNCTION        1.27          1.370        0.000
  HS02004852           JUNCTION        1.47          1.420        0.000
  HS02004856           JUNCTION        1.37          1.300        0.000
  HS02004862           JUNCTION        1.75          1.300        0.000
  HS02004870           JUNCTION        1.77          1.266        0.134
  HS02004876           JUNCTION        1.83          1.330        0.230
  HS02004881           JUNCTION        1.81          1.071        0.379
  HS02004901           JUNCTION        1.87          0.720        0.000
  WS02004401           JUNCTION        2.30          1.660        0.000
  WS02004402           JUNCTION        2.31          1.740        0.000
  WS02004403           JUNCTION        2.32          2.030        0.000
  WS02004404           JUNCTION        2.50          2.607        0.173
  WS02004405           JUNCTION        2.45          2.114        0.686
  WS02004406           JUNCTION        2.42          1.724        0.726
  WS02004409           JUNCTION        1.97          0.397        1.963
  WS02004410           JUNCTION        1.95          0.541        1.999
  WS02004411           JUNCTION        1.93          0.443        2.087
  WS02004412           JUNCTION        1.90          0.135        2.175
  WS02004413           JUNCTION        2.11          1.403        0.797
  WS02006109           JUNCTION        3.03          1.820        0.000
  WS02006110           JUNCTION        2.80          1.662        0.188
  WS02006111           JUNCTION        2.07          1.274        0.596
  WS02006112           JUNCTION        2.96          1.680        0.000
  WS02006113           JUNCTION        2.10          1.350        0.580
  WS02006115           JUNCTION        2.26          2.076        0.174
  WS02006116           JUNCTION        2.27          1.994        0.296
  WS02006228           JUNCTION        3.03          2.200        0.000
  WS02006229           JUNCTION        1.98          1.070        0.000
  WS02006230           JUNCTION        2.57          1.570        0.000
  WS02006231           JUNCTION        2.82          1.530        0.000
  WS02006232           JUNCTION        2.99          1.480        0.000
  WS02006234           JUNCTION        2.94          1.240        0.000
  WS02006235           JUNCTION        2.95          1.290        0.000
  WS02006238           JUNCTION        2.96          1.430        0.000
  WS02006239           JUNCTION        2.94          1.290        0.000
  WS02006240           JUNCTION        2.94          1.390        0.000
  WS02006242           JUNCTION        2.94          0.820        0.000
  WS02006243           JUNCTION        2.93          0.770        0.000
  WS02006245           JUNCTION        2.92          0.768        0.082
  WS02006247           JUNCTION        2.92          0.760        0.000
  WS02006248           JUNCTION        2.91          0.380        0.000
  WS02006249           JUNCTION        2.92          0.390        0.000
  WS02006251           JUNCTION        2.90          1.122        0.058
  WS02006252           JUNCTION        3.04          1.100        0.000
  WS02006253           JUNCTION        2.90          2.480        0.000
  WS02006256           JUNCTION        5.10          2.050        0.000
  WS02006280           JUNCTION        1.94          0.780        0.000
  WS02006284           JUNCTION        1.90          0.786        0.014
  WS02006287           JUNCTION        1.86          0.815        0.075
  YS02001580           JUNCTION        1.83          0.450        0.000
  YS02001583           JUNCTION        1.83          0.337        0.163
  YS02001586           JUNCTION        1.95          0.510        0.000
  YS02001590           JUNCTION        2.00          0.750        0.000
  YS02001593           JUNCTION        2.00          0.840        0.000
  YS02001596           JUNCTION        2.07          1.070        0.000
  YS02001600           JUNCTION        2.15          1.190        0.000
  YS02001601           JUNCTION        2.33          1.440        0.000
  YS02001602           JUNCTION        2.28          1.270        0.000
  YS02001605           JUNCTION        2.26          1.180        0.000
  YS02001607           JUNCTION        2.00          0.680        0.000
  YS02001610           JUNCTION        2.02          0.680        0.000
  YS02001613           JUNCTION        2.00          0.700        0.000
  YS02001616           JUNCTION        1.97          0.610        0.000
  YS02001619           JUNCTION        1.96          0.610        0.000
  YS02001622           JUNCTION        1.97          0.571        0.049
  YS02001625           JUNCTION        2.09          0.780        0.000
  YS02001629           JUNCTION        1.93          0.470        0.000
  YS02001633           JUNCTION        2.14          1.025        0.035
  YS02001641           JUNCTION        2.14          1.030        0.070
  YS02001644           JUNCTION        2.13          0.920        0.000
  YS02001647           JUNCTION        1.96          0.706        0.194
  YS02001649           JUNCTION        2.08          0.884        0.166
  YS02001652           JUNCTION        1.90          0.658        0.472
  YS02001655           JUNCTION        1.78          0.587        0.613
  YS02001658           JUNCTION        0.60          0.528        0.772
  YS02001748           JUNCTION        0.05          0.312        0.878
  YS02001751           JUNCTION        1.64          0.406        0.794
  YS02001754           JUNCTION        1.85          0.607        0.543
  YS02001757           JUNCTION        2.16          0.972        0.238
  YS02001759           JUNCTION        2.08          0.979        0.231
  YS02001762           JUNCTION        2.05          1.002        0.148
  YS02001765           JUNCTION        2.01          0.975        0.125
  YS02001767           JUNCTION        1.98          0.938        0.092
  YS02001770           JUNCTION        1.97          0.891        0.029
  YS02001774           JUNCTION        2.03          1.002        0.048
  YS02001779           JUNCTION        1.84          0.680        0.000
  YS02001783           JUNCTION        1.80          0.495        1.105
  YS02001784           JUNCTION        1.57          0.366        1.124
  YS02001786           JUNCTION        1.14          0.106        1.324
  YS02001882           JUNCTION        1.29          0.830        0.000
  YS02001884           JUNCTION        1.35          0.870        0.000
  YS02001887           JUNCTION        1.78          0.796        0.154
  YS02001890           JUNCTION        1.80          0.760        0.000
  YS02001895           JUNCTION        1.26          0.685        0.065
  YS02001898           JUNCTION        1.25          0.734        0.006
  YS02001901           JUNCTION        1.53          0.870        0.000
  YS02001904           JUNCTION        1.43          0.799        0.051
  YS02001907           JUNCTION        1.94          0.950        0.000
  YS02001910           JUNCTION        1.83          1.078        0.022
  YS02001915           JUNCTION        1.30          0.983        0.017
  YS02001918           JUNCTION        1.11          0.784        0.026
  YS02001920           JUNCTION        1.14          0.930        0.210
  YS02001923           JUNCTION        0.01          0.541        0.279
  YS02001926           JUNCTION        0.01          0.633        0.267
  YS02001929           JUNCTION        0.01          0.455        0.325
  YS02006553           JUNCTION        1.95          1.021        0.169
  YS02006556           JUNCTION        1.89          1.014        0.336
  YS02006558           JUNCTION        1.88          0.894        0.506
  YS02006561           JUNCTION        1.07          0.183        0.967
  YS02163301           JUNCTION        2.12          0.969        0.061
  YS02163601           JUNCTION        2.18          1.080        0.000
  YS02164001           JUNCTION        2.13          1.055        0.045
  YSB1154              JUNCTION        2.00          1.357        0.043
  YSB1171              JUNCTION        2.00          1.100        0.000
  YSB1174              JUNCTION        1.98          1.141        0.109
  YSB6556              JUNCTION        1.95          1.100        0.000
  
  
  *********************
  Node Flooding Summary
  *********************
  
  Flooding refers to all water that overflows a node, whether it ponds or not.
  --------------------------------------------------------------------------
                                                             Total   Maximum
                                 Maximum   Time of Max       Flood    Ponded
                        Hours       Rate    Occurrence      Volume     Depth
  Node                 Flooded       LPS   days hr:min    10^6 ltr    Meters
  --------------------------------------------------------------------------
  HS02004770              0.95    244.14      0  01:27       0.399     0.000
  HS02004777              0.01      4.68      0  01:45       0.000     0.000
  HS02004788              0.01    260.48      0  01:11       0.001     0.000
  HS02004792              1.07    593.74      0  01:27       1.200     0.000
  HS02004799              0.01     64.53      0  01:11       0.000     0.000
  HS02004807              0.01     11.17      0  01:15       0.000     0.000
  HS02004824              0.01     12.86      0  01:15       0.000     0.000
  HS02004830              0.01     11.07      0  01:15       0.000     0.000
  HS02004837              0.01     35.78      0  01:15       0.000     0.000
  HS02004842              0.01    148.83      0  01:15       0.001     0.000
  HS02004848              0.01    164.05      0  01:15       0.000     0.000
  HS02004852              0.01     20.81      0  01:15       0.000     0.000
  HS02004856              0.01     10.16      0  01:15       0.000     0.000
  HS02004862              0.01      3.73      0  01:15       0.000     0.000
  HS02004901              1.27    468.31      0  01:26       1.720     0.000
  WS02004401              0.01    109.78      0  01:11       0.001     0.000
  WS02004402              0.01    114.47      0  01:11       0.001     0.000
  WS02004403              0.01    211.70      0  01:11       0.000     0.000
  WS02006109              1.20    164.10      0  01:27       0.457     0.000
  WS02006112              0.01    114.90      0  01:11       0.001     0.000
  WS02006228              0.01      7.75      0  01:11       0.000     0.000
  WS02006229              0.01     25.27      0  01:11       0.000     0.000
  WS02006230              1.91    532.51      0  01:27       2.867     0.000
  WS02006231              0.01    144.32      0  01:09       0.000     0.000
  WS02006232              0.51    211.25      0  01:09       0.001     0.000
  WS02006234              1.95    129.37      0  03:02       0.871     0.000
  WS02006235              0.01     57.80      0  01:10       0.000     0.000
  WS02006238              0.01     24.87      0  01:10       0.000     0.000
  WS02006239              0.01    363.72      0  01:10       0.001     0.000
  WS02006240              0.01    759.62      0  01:10       0.002     0.000
  WS02006242              1.98    804.76      0  01:10       0.970     0.000
  WS02006243              0.01    677.65      0  01:10       0.006     0.000
  WS02006247              0.01    485.85      0  01:11       0.002     0.000
  WS02006248              2.05    501.72      0  01:11       2.447     0.000
  WS02006249              2.71   1261.59      0  01:27       8.899     0.000
  WS02006252              1.76    305.71      0  01:27       0.942     0.000
  WS02006253              0.01    405.38      0  01:11       0.000     0.000
  WS02006256              2.39    293.19      0  00:00       1.622     0.000
  WS02006280              0.01     13.42      0  01:11       0.000     0.000
  YS02001580              0.01    101.47      0  01:12       0.000     0.000
  YS02001586              1.32    139.23      0  01:45       0.393     0.000
  YS02001590              0.01      0.29      0  02:03       0.000     0.000
  YS02001593              0.01     39.00      0  01:10       0.000     0.000
  YS02001596              0.01      7.28      0  01:10       0.000     0.000
  YS02001600              0.01      6.64      0  01:45       0.000     0.000
  YS02001601              1.89    656.61      0  01:27       2.876     0.000
  YS02001602              1.85     65.13      0  01:45       0.402     0.000
  YS02001605              0.01      3.29      0  01:45       0.000     0.000
  YS02001607              0.01     16.47      0  01:45       0.000     0.000
  YS02001610              1.78    291.64      0  01:30       1.022     0.000
  YS02001613              0.01      0.96      0  01:45       0.000     0.000
  YS02001616              0.01     34.83      0  01:12       0.000     0.000
  YS02001619              0.01     67.97      0  01:12       0.000     0.000
  YS02001625              1.80    711.92      0  01:29       2.852     0.000
  YS02001629              0.07    255.99      0  01:12       0.004     0.000
  YS02001644              0.03     82.63      0  01:45       0.002     0.000
  YS02001779              0.01     52.56      0  02:07       0.001     0.000
  YS02001882              0.01      0.22      0  02:07       0.000     0.000
  YS02001884              0.01      1.61      0  02:07       0.000     0.000
  YS02001890              0.01     34.85      0  02:07       0.000     0.000
  YS02001901              0.01      1.28      0  02:07       0.000     0.000
  YS02001907              1.03    660.07      0  01:17       1.041     0.000
  YS02163601              0.01     28.86      0  02:03       0.000     0.000
  YSB1171                 0.36    136.79      0  01:27       0.083     0.000
  YSB6556                 0.01     16.07      0  01:11       0.000     0.000
  
  
  **********************
  Storage Volume Summary
  **********************
  
  --------------------------------------------------------------------------------------------------
                         Average     Avg  Evap Exfil       Maximum     Max    Time of Max    Maximum
                          Volume    Pcnt  Pcnt  Pcnt        Volume    Pcnt     Occurrence    Outflow
  Storage Unit           1000 m3    Full  Loss  Loss       1000 m3    Full    days hr:min        LPS
  --------------------------------------------------------------------------------------------------
  CC-storage               3.274      51     0     0         5.788      90       0  03:00    1783.53
  JK-storage               0.115      39     0     0         0.213      73       0  01:59    2300.00
  XR-storage               0.945      66     0     0         1.111      77       0  08:00     380.00
  
  
  ***********************
  Outfall Loading Summary
  ***********************
  
  -----------------------------------------------------------
                         Flow       Avg       Max       Total
                         Freq      Flow      Flow      Volume
  Outfall Node           Pcnt       LPS       LPS    10^6 ltr
  -----------------------------------------------------------
  CC-1                  53.42    683.00    683.00       6.992
  CC-2                  51.82    683.00    683.00       6.775
  JK-1                  27.45   1000.00   1000.00       5.320
  JK-2                   0.18   1000.00   1000.00       0.048
  WSC                   99.95    812.10   1483.62      17.822
  -----------------------------------------------------------
  System                46.56   4178.10   1483.62      36.958
  
  
  ********************
  Link Flow Summary
  ********************
  
  -----------------------------------------------------------------------------
                                 Maximum  Time of Max   Maximum    Max/    Max/
                                  |Flow|   Occurrence   |Veloc|    Full    Full
  Link                 Type          LPS  days hr:min     m/sec    Flow   Depth
  -----------------------------------------------------------------------------
  1                    CONDUIT   1483.62     0  01:22      3.69    0.52    0.51
  HS02004478WS02006287 CONDUIT   2221.32     0  01:28      2.92    0.62    1.00
  HS02004479HS02004480 CONDUIT    395.42     0  01:17      0.65    0.38    1.00
  HS02004480HS02004478 CONDUIT   2120.90     0  01:12      3.03    8.93    1.00
  HS02004770HS02004777 CONDUIT    753.92     0  01:11      1.08    1.38    1.00
  HS02004777HS02004785 CONDUIT    753.82     0  01:11      1.16    0.93    1.00
  HS02004785HS02004788 CONDUIT    743.79     0  01:11      1.40    5.61    1.00
  HS02004788HS02004792 CONDUIT    908.04     0  01:11      1.48    0.60    1.00
  HS02004792HS02004799 CONDUIT   1626.19     0  01:11      2.32    1.00    1.00
  HS02004799HS02004480 CONDUIT   1779.80     0  01:11      2.54    2.25    1.00
  HS02004802HS02004478 CONDUIT    576.37     0  01:27      0.82    0.51    1.00
  HS02004807HS02004802 CONDUIT    576.86     0  01:27      0.82    1.10    1.00
  HS02004817HS02004807 CONDUIT    460.13     0  01:12      0.66    0.27    1.00
  HS02004817HS02004824 CONDUIT    460.34     0  01:12      0.66    0.21    1.00
  HS02004824HS02004830 CONDUIT    689.41     0  01:12      1.07    0.90    1.00
  HS02004830HS02004837 CONDUIT    667.22     0  01:12      1.05    0.66    1.00
  HS02004837HS02004842 CONDUIT    834.16     0  01:12      1.19    0.50    1.00
  HS02004842HS02004848 CONDUIT    834.15     0  01:12      1.33    0.49    1.00
  HS02004848HS02004852 CONDUIT    996.15     0  01:13      1.64    1.12    1.00
  HS02004852HS02004856 CONDUIT    981.18     0  01:15      1.48    1.12    1.00
  HS02004856HS02004862 CONDUIT   1049.27     0  01:15      1.70    1.05    1.00
  HS02004862HS02004870 CONDUIT   1139.05     0  01:14      1.94    1.23    1.00
  HS02004870HS02004876 CONDUIT   1276.76     0  01:14      2.08    0.85    1.00
  HS02004876HS02004881 CONDUIT   1301.03     0  01:14      2.58   13.84    1.00
  HS02004881HS02006253 CONDUIT   1310.52     0  01:15      2.93    0.26    1.00
  HS02004901HS02004770 CONDUIT    265.79     0  01:59      0.38    1.00    1.00
  WS02001211WS02001212 CONDUIT    302.24     0  01:20      0.54    0.23    0.71
  WS02001212WS02001213 CONDUIT    343.63     0  01:20      1.04    0.53    0.61
  WS02001213WS02003059 CONDUIT    299.09     0  01:19      0.47    0.49    0.91
  WS02003059WS02003060 CONDUIT    385.09     0  01:14      0.71    0.25    0.82
  WS02003060WS02003069 CONDUIT   1491.05     0  01:22      2.29    0.58    0.60
  WS02003066WSF200     CONDUIT   1254.05     0  01:18      3.61    0.21    0.40
  WS02003067WS02003066 CONDUIT   1256.48     0  01:15      2.00    0.40    0.57
  WS02003069WS02003072 CONDUIT   1483.02     0  01:22      1.89    0.71    0.66
  WS02003072WS02003073 CONDUIT   1482.62     0  01:21      2.04    3.20    0.61
  WS02004138WS02004139 CONDUIT    190.63     0  00:29      2.18    0.04    0.43
  WS02004139WS02001211 CONDUIT    349.37     0  01:18      0.54    0.44    0.62
  WS02004401WS02004402 CONDUIT   1278.31     0  01:13      1.63    1.53    1.00
  WS02004402WS02004403 CONDUIT   1278.34     0  01:13      1.63    1.84    1.00
  WS02004403WS02004404 CONDUIT   1278.46     0  01:13      1.63    0.92    1.00
  WS02004404WS02004405 CONDUIT   1280.34     0  01:13      1.63   12.54    1.00
  WS02004405WS02004406 CONDUIT   1282.21     0  01:13      1.63    2.53    1.00
  WS02004406WS02004407 CONDUIT   1282.65     0  01:13      2.10    0.57    0.92
  WS02004407WS02004409 CONDUIT   1360.47     0  01:12      2.62    0.48    0.92
  WS02004409WS02004410 CONDUIT   1411.55     0  01:12      1.98    1.83    1.00
  WS02004410WS02004411 CONDUIT   1317.44     0  01:12      1.95    1.80    1.00
  WS02004411WS02004412 CONDUIT   1250.17     0  01:27      1.83    1.78    1.00
  WS02004412WS02004413 CONDUIT   1253.96     0  01:13      1.76    0.84    1.00
  WS02004413WS02003067 CONDUIT   1249.86     0  01:26      1.95    0.54    0.76
  WS02006109WS02006110 CONDUIT   1275.49     0  01:11      2.54    2.45    1.00
  WS02006110WS02006113 CONDUIT   1275.15     0  01:11      2.54    1.16    1.00
  WS02006111WS02006112 CONDUIT   1221.29     0  01:11      2.43    0.58    1.00
  WS02006112WS02006115 CONDUIT   1332.41     0  01:11      1.70    0.79    1.00
  WS02006113WS02006111 CONDUIT   1279.45     0  01:11      2.81    1.53    1.00
  WS02006115WS02006116 CONDUIT   1297.78     0  01:11      1.65    1.67    1.00
  WS02006116WS02004401 CONDUIT   1278.19     0  01:13      1.63    1.76    1.00
  WS02006228WS02006109 CONDUIT   1275.30     0  01:11      2.54    5.57    1.00
  WS02006229WS02006228 CONDUIT   1279.84     0  01:11      2.55    4.24    1.00
  WS02006230WS02006229 CONDUIT    975.29     0  01:27      2.53   21.70    1.00
  WS02006231WS02006230 CONDUIT    668.39     0  01:09      1.74   10.14    1.00
  WS02006232WS02006231 CONDUIT    656.46     0  01:09      1.71    1.38    1.00
  WS02006234WS02006232 CONDUIT    656.27     0  01:09      2.01    1.33    1.00
  WS02006235WS02006234 CONDUIT    681.61     0  01:09      1.80    7.19    1.00
  WS02006238WS02006235 CONDUIT    680.97     0  01:09      2.07    1.52    1.00
  WS02006239WS02006238 CONDUIT    697.53     0  01:10      2.22    2.23    1.00
  WS02006240WS02006239 CONDUIT    689.29     0  01:10      1.88    2.17    1.00
  WS02006242WS02006240 CONDUIT    532.17     0  01:10      1.38    2.11    1.00
  WS02006243WS02006242 CONDUIT    468.21     0  01:10      1.34    1.00    1.00
  WS02006245WS02006243 CONDUIT    419.23     0  03:54      1.39    1.24    1.00
  WS02006247WS02006245 CONDUIT    419.18     0  03:54      1.37    3.32    1.00
  WS02006248WS02006247 CONDUIT    444.03     0  01:11      1.38    0.97    1.00
  WS02006249WS02006248 CONDUIT    480.57     0  01:11      1.38    2.63    1.00
  WS02006251WS02006249 CONDUIT   1322.80     0  01:27      3.44    3.81    1.00
  WS02006252WS02006251 CONDUIT    408.02     0  03:07     24.89    1.50    1.00
  WS02006253WS02006251 CONDUIT   1330.26     0  01:15      3.46    3.99    1.00
  WS02006256WS02006235 CONDUIT    288.93     0  00:00      4.23    3.06    1.00
  WS02006280WS02006229 CONDUIT   2222.61     0  01:26      5.30    0.47    1.00
  WS02006284WS02006280 CONDUIT   2221.35     0  01:26      3.33    0.93    1.00
  WS02006287WS02006284 CONDUIT   2220.63     0  01:27      3.10    1.03    1.00
  WSF200WS02003060     CONDUIT   1452.60     0  01:14      3.33    0.32    0.50
  YS02001580YS02001583 CONDUIT    126.49     0  01:12      0.73    0.49    1.00
  YS02001583YS02001586 CONDUIT    155.38     0  01:11      0.71    0.24    1.00
  YS02001586YS02001590 CONDUIT    318.20     0  02:03      1.30    0.56    1.00
  YS02001590YS02001593 CONDUIT    320.48     0  01:45      1.13    2.01    1.00
  YS02001593YS02001596 CONDUIT    318.08     0  01:49      1.65    0.50    1.00
  YS02001596YS02001600 CONDUIT    318.08     0  02:09      1.22    0.62    1.00
  YS02001600YS02001601 CONDUIT    318.34     0  01:27      1.13    0.55    1.00
  YS02001601YS02001602 CONDUIT    588.60     0  01:11      2.08    2.13    1.00
  YS02001602YS02001605 CONDUIT    588.29     0  01:12      2.08   12.45    1.00
  YS02001605YS02001607 CONDUIT    588.22     0  01:11      2.08    3.23    1.00
  YS02001607YS02001610 CONDUIT    576.32     0  01:11      0.84    0.55    1.00
  YS02001610YS02001613 CONDUIT    556.85     0  01:12      0.78    0.64    1.00
  YS02001613YS02001616 CONDUIT    518.37     0  01:11      0.83    0.44    1.00
  YS02001616YS02001619 CONDUIT    504.67     0  01:12      0.88    0.88    1.00
  YS02001619YS02001622 CONDUIT    946.59     0  01:12      1.82    1.40    1.00
  YS02001622YS02001625 CONDUIT    952.46     0  01:12      1.21    0.51    1.00
  YS02001625YS02001629 CONDUIT    956.88     0  01:12      1.22    0.46    1.00
  YS02001629YS02163301 CONDUIT    912.12     0  01:14      1.16    1.12    1.00
  YS02001633YS02163601 CONDUIT   1343.29     0  01:15      1.71    1.41    1.00
  YS02001641YS02001644 CONDUIT   1344.65     0  01:15      1.71    4.35    1.00
  YS02001644YS02001647 CONDUIT   1741.34     0  01:15      2.27    1.02    1.00
  YS02001647YS02001649 CONDUIT   1761.57     0  01:15      2.35    0.93    1.00
  YS02001649YS02001757 CONDUIT   2031.97     0  01:14      2.61    1.23    1.00
  YS02001652YS02001649 CONDUIT    469.92     0  01:45      1.36    0.23    1.00
  YS02001655YS02001652 CONDUIT    487.92     0  01:45      1.85    0.24    1.00
  YS02001658YS02001655 CONDUIT    556.52     0  01:17      2.02    0.24    1.00
  YS02001661YS02001658 CONDUIT    741.65     0  01:22      2.26    0.29    0.86
  YS02001664YS02001661 CONDUIT    440.86     0  01:27      2.12    0.14    0.51
  YS02001745YS02001748 CONDUIT    634.54     0  01:28      2.11    0.24    0.77
  YS02001748YS02001751 CONDUIT    442.67     0  01:19      1.74    0.22    1.00
  YS02001751YS02001754 CONDUIT    351.20     0  01:45      1.70    0.17    1.00
  YS02001754YS02001757 CONDUIT    339.46     0  01:45      1.07    0.14    1.00
  YS02001757CaochengTiaoxuchi CONDUIT   2979.41     0  01:18      3.81    1.29    1.00
  YS02001759YS02001757 CONDUIT    985.02     0  01:17      1.34    0.70    1.00
  YS02001762YS02001759 CONDUIT    623.48     0  01:17      0.79    0.72    1.00
  YS02001765YS02001762 CONDUIT    615.43     0  01:17      0.85    0.58    1.00
  YS02001767YS02001765 CONDUIT    607.70     0  01:17      0.96    0.76    1.00
  YS02001770YS02001767 CONDUIT    603.62     0  01:17      0.96    2.39    1.00
  YS02001774YS02001770 CONDUIT    158.66     0  01:13      0.73    0.10    1.00
  YS02001779YS02001774 CONDUIT    123.65     0  01:16      0.22    0.06    1.00
  YS02001783YS02001784 CONDUIT   1148.80     0  01:25      2.29    1.58    1.00
  YS02001784YS02001785 CONDUIT   1149.45     0  01:25      2.29    2.67    1.00
  YS02001786YS02001788 CONDUIT   1149.60     0  01:25      2.46    2.22    0.89
  YS02001788YS02001790 CONDUIT   1161.30     0  01:24      2.71    0.86    0.83
  YS02001790YS02001791 CONDUIT   1277.49     0  01:40      3.42    1.39    0.70
  YS02001791YS02001793 CONDUIT   1236.59     0  01:18      6.77    0.53    0.44
  YS02001793JiankangQianchi CONDUIT   1257.03     0  02:05      2.52    0.10    0.65
  YS02001882YS02001884 CONDUIT     79.72     0  01:10      0.42    0.09    1.00
  YS02001884YS02001887 CONDUIT    146.30     0  01:10      0.37    0.19    1.00
  YS02001887YS02001890 CONDUIT    401.72     0  01:14      0.51    0.69    1.00
  YS02001890YS02001895 CONDUIT    408.84     0  01:14      0.52    0.19    1.00
  YS02001895YS02001898 CONDUIT    418.67     0  01:14      0.72    0.73    1.00
  YS02001898YS02001901 CONDUIT    434.72     0  01:14      0.60    0.28    1.00
  YS02001901YS02001904 CONDUIT    437.16     0  01:14      0.65    0.68    1.00
  YS02001904YS02001907 CONDUIT    438.85     0  01:14      0.56    0.15    1.00
  YS02001907YS02006553 CONDUIT    781.22     0  02:18      0.87    0.92    1.00
  YS02001910YS02001907 CONDUIT    902.26     0  01:17      1.15    0.51    1.00
  YS02001915YS02001910 CONDUIT    901.68     0  01:17      1.15    0.45    1.00
  YS02001918YS02001915 CONDUIT    442.31     0  01:17      0.56    0.24    1.00
  YS02001920YS02001918 CONDUIT    440.92     0  01:17      0.72    0.43    1.00
  YS02001923YS02001920 CONDUIT    437.64     0  01:17      0.83    0.20    1.00
  YS02001926YS02001923 CONDUIT    392.88     0  01:17      0.94    0.56    1.00
  YS02001929YS02001926 CONDUIT    389.97     0  01:17      1.07    0.19    1.00
  YS02006553YS02006556 CONDUIT    780.97     0  02:18      0.99    0.67    1.00
  YS02006556YS02006558 CONDUIT    782.06     0  02:18      1.00    0.62    1.00
  YS02006558YS02006561 CONDUIT   1148.84     0  01:25      4.06    2.54    1.00
  YS02006561YS02001783 CONDUIT   1148.79     0  01:25      2.29    0.59    1.00
  YS02163301YS02001633 CONDUIT    912.75     0  01:14      1.16    0.86    1.00
  YS02163601YS02164001 CONDUIT   1343.91     0  01:15      1.71    1.19    1.00
  YS02164001YS02001641 CONDUIT   1344.82     0  01:15      1.71    1.84    1.00
  YSB1154YSB6556       CONDUIT    233.84     0  01:26      0.61    0.42    1.00
  YSB1171HS02004479    CONDUIT    394.10     0  01:17      0.78    0.26    1.00
  YSB1174YSB1171       CONDUIT    182.58     0  01:25      0.47    0.28    1.00
  YSB6556YSB1171       CONDUIT    234.48     0  01:26      0.61    0.24    1.00
  CC-R1                PUMP       683.00     0  00:00              1.00
  CC-R2                PUMP       683.00     0  00:00              1.00
  CC-S1                PUMP       200.00     0  00:00              1.00
  CC-S2                PUMP       200.00     0  00:00              1.00
  JK-R1                PUMP      1000.00     0  00:00              1.00
  JK-R2                PUMP      1000.00     0  00:00              1.00
  JK-S                 PUMP       300.00     0  00:00              1.00
  XR-1                 PUMP        95.00     0  00:00              1.00
  XR-2                 PUMP        95.00     0  00:00              1.00
  XR-3                 PUMP        95.00     0  00:00              1.00
  XR-4                 PUMP        95.00     0  00:00              1.00
  
  
  ***************************
  Flow Classification Summary
  ***************************
  
  -------------------------------------------------------------------------------------
                      Adjusted    ---------- Fraction of Time in Flow Class ---------- 
                       /Actual         Up    Down  Sub   Sup   Up    Down  Norm  Inlet 
  Conduit               Length    Dry  Dry   Dry   Crit  Crit  Crit  Crit  Ltd   Ctrl  
  -------------------------------------------------------------------------------------
  1                       1.00   0.00  0.00  0.00  0.00  1.00  0.00  0.00  0.50  0.00
  HS02004478WS02006287    1.00   0.08  0.00  0.00  0.76  0.16  0.00  0.00  0.55  0.00
  HS02004479HS02004480    1.00   0.04  0.00  0.00  0.96  0.00  0.00  0.00  0.09  0.00
  HS02004480HS02004478    1.00   0.08  0.00  0.00  0.72  0.00  0.00  0.20  0.00  0.00
  HS02004770HS02004777    1.00   0.00  0.08  0.00  0.92  0.00  0.00  0.00  0.00  0.00
  HS02004777HS02004785    1.00   0.00  0.00  0.00  1.00  0.00  0.00  0.00  0.09  0.00
  HS02004785HS02004788    1.00   0.00  0.00  0.00  1.00  0.00  0.00  0.00  0.00  0.00
  HS02004788HS02004792    1.00   0.00  0.00  0.00  0.99  0.01  0.00  0.00  0.74  0.00
  HS02004792HS02004799    1.00   0.00  0.00  0.00  0.99  0.01  0.00  0.00  0.73  0.00
  HS02004799HS02004480    1.00   0.00  0.04  0.00  0.91  0.00  0.05  0.00  0.00  0.00
  HS02004802HS02004478    1.00   0.08  0.00  0.00  0.92  0.00  0.00  0.00  0.01  0.00
  HS02004807HS02004802    1.00   0.08  0.00  0.00  0.92  0.00  0.00  0.00  0.00  0.00
  HS02004817HS02004807    1.00   0.00  0.08  0.00  0.92  0.00  0.00  0.00  0.01  0.00
  HS02004817HS02004824    1.00   0.00  0.00  0.00  1.00  0.00  0.00  0.00  0.73  0.00
  HS02004824HS02004830    1.00   0.00  0.00  0.00  1.00  0.00  0.00  0.00  0.00  0.00
  HS02004830HS02004837    1.00   0.00  0.00  0.00  1.00  0.00  0.00  0.00  0.73  0.00
  HS02004837HS02004842    1.00   0.00  0.00  0.00  1.00  0.00  0.00  0.00  0.11  0.00
  HS02004842HS02004848    1.00   0.00  0.08  0.00  0.92  0.00  0.00  0.00  0.50  0.00
  HS02004848HS02004852    1.00   0.08  0.00  0.00  0.92  0.00  0.00  0.00  0.61  0.00
  HS02004852HS02004856    1.00   0.08  0.00  0.00  0.92  0.00  0.00  0.00  0.60  0.00
  HS02004856HS02004862    1.00   0.00  0.08  0.00  0.92  0.00  0.00  0.00  0.62  0.00
  HS02004862HS02004870    1.00   0.00  0.00  0.00  1.00  0.00  0.00  0.00  0.01  0.00
  HS02004870HS02004876    1.00   0.00  0.00  0.00  0.99  0.01  0.00  0.00  0.70  0.00
  HS02004876HS02004881    1.00   0.02  0.00  0.00  0.88  0.10  0.00  0.00  0.00  0.00
  HS02004881HS02006253    1.00   0.03  0.02  0.00  0.56  0.02  0.00  0.37  0.14  0.00
  HS02004901HS02004770    1.00   0.08  0.00  0.00  0.92  0.00  0.00  0.00  0.00  0.00
  WS02001211WS02001212    1.00   0.00  0.03  0.00  0.97  0.00  0.00  0.00  0.00  0.00
  WS02001212WS02001213    1.00   0.03  0.00  0.00  0.59  0.00  0.38  0.00  0.00  0.00
  WS02001213WS02003059    1.00   0.00  0.00  0.00  0.99  0.00  0.00  0.00  0.00  0.00
  WS02003059WS02003060    1.00   0.00  0.00  0.00  1.00  0.00  0.00  0.00  0.03  0.00
  WS02003060WS02003069    1.00   0.00  0.00  0.00  0.99  0.01  0.00  0.00  0.49  0.00
  WS02003066WSF200        1.00   0.05  0.00  0.00  0.00  0.95  0.00  0.00  0.56  0.00
  WS02003067WS02003066    1.00   0.05  0.00  0.00  0.95  0.00  0.00  0.00  0.00  0.00
  WS02003069WS02003072    1.00   0.00  0.00  0.00  1.00  0.00  0.00  0.00  0.55  0.00
  WS02003072WS02003073    1.00   0.00  0.00  0.00  0.00  0.00  0.00  1.00  0.00  0.00
  WS02004138WS02004139    1.00   0.00  0.01  0.00  0.97  0.01  0.00  0.01  0.98  0.00
  WS02004139WS02001211    1.00   0.00  0.00  0.00  0.99  0.00  0.00  0.00  0.00  0.00
  WS02004401WS02004402    1.00   0.03  0.00  0.00  0.97  0.00  0.00  0.00  0.00  0.00
  WS02004402WS02004403    1.00   0.03  0.00  0.00  0.97  0.00  0.00  0.00  0.00  0.00
  WS02004403WS02004404    1.00   0.00  0.03  0.00  0.97  0.00  0.00  0.00  0.00  0.00
  WS02004404WS02004405    1.00   0.00  0.00  0.00  1.00  0.00  0.00  0.00  0.01  0.00
  WS02004405WS02004406    1.00   0.00  0.00  0.00  1.00  0.00  0.00  0.00  0.00  0.00
  WS02004406WS02004407    1.00   0.00  0.04  0.00  0.96  0.00  0.00  0.00  0.00  0.00
  WS02004407WS02004409    1.00   0.04  0.00  0.00  0.95  0.01  0.00  0.00  0.71  0.00
  WS02004409WS02004410    1.00   0.04  0.00  0.00  0.96  0.00  0.00  0.00  0.00  0.00
  WS02004410WS02004411    1.00   0.04  0.00  0.00  0.96  0.00  0.00  0.00  0.00  0.00
  WS02004411WS02004412    1.00   0.04  0.00  0.00  0.96  0.00  0.00  0.00  0.00  0.00
  WS02004412WS02004413    1.00   0.04  0.00  0.00  0.96  0.00  0.00  0.00  0.00  0.00
  WS02004413WS02003067    1.00   0.04  0.01  0.00  0.00  0.00  0.95  0.00  0.00  0.00
  WS02006109WS02006110    1.00   0.00  0.01  0.00  0.98  0.00  0.01  0.00  0.00  0.00
  WS02006110WS02006113    1.00   0.01  0.01  0.00  0.98  0.00  0.00  0.00  0.00  0.00
  WS02006111WS02006112    1.00   0.02  0.00  0.00  0.97  0.00  0.00  0.00  0.67  0.00
  WS02006112WS02006115    1.00   0.02  0.00  0.00  0.97  0.00  0.00  0.00  0.00  0.00
  WS02006113WS02006111    1.00   0.02  0.00  0.00  0.44  0.55  0.00  0.00  0.09  0.00
  WS02006115WS02006116    1.00   0.02  0.00  0.00  0.97  0.00  0.00  0.01  0.00  0.00
  WS02006116WS02004401    1.00   0.03  0.00  0.00  0.97  0.00  0.00  0.00  0.00  0.00
  WS02006228WS02006109    1.00   0.00  0.00  0.00  1.00  0.00  0.00  0.00  0.00  0.00
  WS02006229WS02006228    1.00   0.00  0.00  0.00  0.99  0.00  0.00  0.01  0.00  0.00
  WS02006230WS02006229    1.00   0.00  0.00  0.00  0.99  0.00  0.00  0.01  0.01  0.00
  WS02006231WS02006230    1.00   0.00  0.00  0.00  0.59  0.00  0.41  0.00  0.00  0.00
  WS02006232WS02006231    1.00   0.00  0.00  0.00  0.99  0.00  0.00  0.00  0.00  0.00
  WS02006234WS02006232    1.00   0.00  0.00  0.00  1.00  0.00  0.00  0.00  0.28  0.00
  WS02006235WS02006234    1.00   0.00  0.00  0.00  0.75  0.00  0.24  0.00  0.00  0.00
  WS02006238WS02006235    1.00   0.00  0.00  0.00  1.00  0.00  0.00  0.00  0.00  0.00
  WS02006239WS02006238    1.00   0.00  0.00  0.00  1.00  0.00  0.00  0.00  0.42  0.00
  WS02006240WS02006239    1.00   0.00  0.00  0.00  0.70  0.00  0.00  0.30  0.00  0.00
  WS02006242WS02006240    1.00   0.00  0.00  0.00  0.99  0.00  0.01  0.00  0.00  0.00
  WS02006243WS02006242    1.00   0.00  0.00  0.00  0.99  0.00  0.00  0.01  0.55  0.00
  WS02006245WS02006243    1.00   0.00  0.00  0.00  0.91  0.00  0.00  0.09  0.00  0.00
  WS02006247WS02006245    1.00   0.00  0.00  0.00  0.99  0.00  0.00  0.01  0.00  0.00
  WS02006248WS02006247    1.00   0.00  0.00  0.00  0.99  0.00  0.00  0.01  0.53  0.00
  WS02006249WS02006248    1.00   0.00  0.00  0.00  0.64  0.00  0.36  0.00  0.00  0.00
  WS02006251WS02006249    1.00   0.00  0.00  0.00  1.00  0.00  0.00  0.00  0.56  0.00
  WS02006252WS02006251    1.00   0.00  0.09  0.00  0.56  0.00  0.35  0.00  0.00  0.00
  WS02006253WS02006251    1.00   0.00  0.00  0.00  0.96  0.00  0.04  0.00  0.00  0.00
  WS02006256WS02006235    1.00   0.00  0.00  0.00  1.00  0.00  0.00  0.00  0.00  0.00
  WS02006280WS02006229    1.00   0.09  0.00  0.00  0.40  0.04  0.00  0.48  0.01  0.00
  WS02006284WS02006280    1.00   0.09  0.00  0.00  0.37  0.00  0.00  0.54  0.00  0.00
  WS02006287WS02006284    1.00   0.07  0.01  0.00  0.66  0.24  0.00  0.01  0.61  0.00
  WSF200WS02003060        1.00   0.00  0.05  0.00  0.37  0.57  0.00  0.00  0.54  0.00
  YS02001580YS02001583    1.00   0.10  0.37  0.00  0.53  0.00  0.00  0.00  0.60  0.00
  YS02001583YS02001586    1.00   0.24  0.17  0.00  0.59  0.00  0.00  0.00  0.61  0.00
  YS02001586YS02001590    1.00   0.08  0.00  0.00  0.68  0.02  0.00  0.22  0.26  0.00
  YS02001590YS02001593    1.00   0.08  0.00  0.00  0.40  0.00  0.52  0.00  0.00  0.00
  YS02001593YS02001596    1.00   0.08  0.00  0.00  0.41  0.01  0.00  0.50  0.01  0.00
  YS02001596YS02001600    1.00   0.08  0.00  0.00  0.46  0.02  0.00  0.44  0.02  0.00
  YS02001600YS02001601    1.00   0.08  0.00  0.00  0.92  0.00  0.00  0.00  0.53  0.00
  YS02001601YS02001602    1.00   0.08  0.00  0.00  0.92  0.00  0.00  0.00  0.00  0.00
  YS02001602YS02001605    1.00   0.08  0.00  0.00  0.92  0.00  0.00  0.00  0.00  0.00
  YS02001605YS02001607    1.00   0.08  0.00  0.00  0.92  0.00  0.00  0.00  0.00  0.00
  YS02001607YS02001610    1.00   0.08  0.00  0.00  0.92  0.00  0.00  0.00  0.00  0.00
  YS02001610YS02001613    1.00   0.08  0.00  0.00  0.92  0.00  0.00  0.00  0.00  0.00
  YS02001613YS02001616    1.00   0.08  0.00  0.00  0.92  0.00  0.00  0.00  0.00  0.00
  YS02001616YS02001619    1.00   0.08  0.00  0.00  0.92  0.00  0.00  0.00  0.00  0.00
  YS02001619YS02001622    1.00   0.08  0.00  0.00  0.91  0.01  0.00  0.00  0.26  0.00
  YS02001622YS02001625    1.00   0.08  0.00  0.00  0.92  0.00  0.00  0.00  0.01  0.00
  YS02001625YS02001629    1.00   0.08  0.01  0.00  0.46  0.00  0.45  0.00  0.00  0.00
  YS02001629YS02163301    1.00   0.08  0.00  0.00  0.92  0.00  0.00  0.00  0.00  0.00
  YS02001633YS02163601    1.00   0.00  0.01  0.00  0.99  0.00  0.00  0.00  0.12  0.00
  YS02001641YS02001644    1.00   0.00  0.00  0.00  1.00  0.00  0.00  0.00  0.00  0.00
  YS02001644YS02001647    1.00   0.00  0.08  0.00  0.92  0.00  0.00  0.00  0.00  0.00
  YS02001647YS02001649    1.00   0.00  0.08  0.00  0.72  0.19  0.00  0.00  0.54  0.00
  YS02001649YS02001757    1.00   0.00  0.00  0.00  0.80  0.20  0.00  0.00  0.34  0.00
  YS02001652YS02001649    1.00   0.00  0.00  0.00  0.99  0.01  0.00  0.00  0.65  0.00
  YS02001655YS02001652    1.00   0.00  0.00  0.00  0.51  0.00  0.00  0.49  0.02  0.00
  YS02001658YS02001655    1.00   0.00  0.08  0.00  0.83  0.09  0.00  0.00  0.57  0.00
  YS02001661YS02001658    1.00   0.08  0.00  0.00  0.66  0.26  0.00  0.00  0.60  0.00
  YS02001664YS02001661    1.00   0.08  0.00  0.00  0.87  0.05  0.00  0.00  0.87  0.00
  YS02001745YS02001748    1.00   0.00  0.00  0.00  0.41  0.01  0.00  0.58  0.04  0.00
  YS02001748YS02001751    1.00   0.00  0.00  0.00  0.94  0.06  0.00  0.00  0.69  0.00
  YS02001751YS02001754    1.00   0.00  0.00  0.00  0.50  0.00  0.00  0.50  0.02  0.00
  YS02001754YS02001757    1.00   0.00  0.00  0.00  1.00  0.00  0.00  0.00  0.67  0.00
  YS02001757CaochengTiaoxuchi    1.00   0.00  0.00  0.00  0.97  0.03  0.00  0.00  0.65  0.00
  YS02001759YS02001757    1.00   0.00  0.00  0.00  1.00  0.00  0.00  0.00  0.58  0.00
  YS02001762YS02001759    1.00   0.00  0.00  0.00  1.00  0.00  0.00  0.00  0.01  0.00
  YS02001765YS02001762    1.00   0.00  0.00  0.00  1.00  0.00  0.00  0.00  0.63  0.00
  YS02001767YS02001765    1.00   0.00  0.00  0.00  1.00  0.00  0.00  0.00  0.00  0.00
  YS02001770YS02001767    1.00   0.00  0.00  0.00  1.00  0.00  0.00  0.00  0.00  0.00
  YS02001774YS02001770    1.00   0.00  0.08  0.00  0.83  0.00  0.09  0.00  0.00  0.00
  YS02001779YS02001774    1.00   0.00  0.00  0.00  1.00  0.00  0.00  0.00  0.66  0.00
  YS02001783YS02001784    1.00   0.00  0.09  0.00  0.91  0.00  0.00  0.00  0.53  0.00
  YS02001784YS02001785    1.00   0.00  0.00  0.00  1.00  0.00  0.00  0.00  0.12  0.00
  YS02001786YS02001788    1.00   0.00  0.00  0.00  0.74  0.26  0.00  0.00  0.00  0.00
  YS02001788YS02001790    1.00   0.00  0.00  0.00  0.20  0.80  0.00  0.00  0.73  0.00
  YS02001790YS02001791    1.00   0.00  0.00  0.00  0.01  0.99  0.00  0.00  0.11  0.00
  YS02001791YS02001793    1.00   0.00  0.00  0.00  0.00  1.00  0.00  0.00  0.02  0.00
  YS02001793JiankangQianchi    1.00   0.00  0.00  0.00  0.86  0.14  0.00  0.00  0.94  0.00
  YS02001882YS02001884    1.00   0.08  0.00  0.00  0.92  0.00  0.00  0.00  0.00  0.00
  YS02001884YS02001887    1.00   0.05  0.02  0.00  0.92  0.00  0.00  0.00  0.00  0.00
  YS02001887YS02001890    1.00   0.00  0.00  0.00  0.97  0.00  0.03  0.00  0.00  0.00
  YS02001890YS02001895    1.00   0.00  0.08  0.00  0.92  0.00  0.00  0.00  0.00  0.00
  YS02001895YS02001898    1.00   0.08  0.00  0.00  0.91  0.00  0.01  0.00  0.00  0.00
  YS02001898YS02001901    1.00   0.08  0.00  0.00  0.91  0.00  0.00  0.00  0.00  0.00
  YS02001901YS02001904    1.00   0.08  0.00  0.00  0.92  0.00  0.00  0.00  0.00  0.00
  YS02001904YS02001907    1.00   0.00  0.08  0.00  0.92  0.00  0.00  0.00  0.00  0.00
  YS02001907YS02006553    1.00   0.00  0.02  0.00  0.97  0.00  0.00  0.00  0.00  0.00
  YS02001910YS02001907    1.00   0.00  0.00  0.00  0.97  0.00  0.00  0.03  0.10  0.00
  YS02001915YS02001910    1.00   0.00  0.00  0.00  0.98  0.02  0.00  0.00  0.11  0.00
  YS02001918YS02001915    1.00   0.00  0.00  0.00  0.97  0.02  0.00  0.00  0.62  0.00
  YS02001920YS02001918    1.00   0.00  0.00  0.00  1.00  0.00  0.00  0.00  0.00  0.00
  YS02001923YS02001920    1.00   0.00  0.00  0.00  1.00  0.00  0.00  0.00  0.77  0.00
  YS02001926YS02001923    1.00   0.00  0.06  0.00  0.24  0.00  0.70  0.00  0.00  0.00
  YS02001929YS02001926    1.00   0.00  0.08  0.00  0.92  0.00  0.00  0.00  0.72  0.00
  YS02006553YS02006556    1.00   0.01  0.00  0.00  0.99  0.00  0.00  0.00  0.03  0.00
  YS02006556YS02006558    1.00   0.00  0.00  0.00  1.00  0.00  0.00  0.00  0.00  0.00
  YS02006558YS02006561    1.00   0.09  0.00  0.00  0.21  0.70  0.00  0.00  0.12  0.00
  YS02006561YS02001783    1.00   0.09  0.00  0.00  0.36  0.55  0.00  0.00  0.60  0.00
  YS02163301YS02001633    1.00   0.00  0.08  0.00  0.92  0.00  0.00  0.00  0.00  0.00
  YS02163601YS02164001    1.00   0.00  0.06  0.00  0.94  0.00  0.00  0.00  0.00  0.00
  YS02164001YS02001641    1.00   0.01  0.06  0.00  0.94  0.00  0.00  0.00  0.05  0.00
  YSB1154YSB6556          1.00   0.08  0.00  0.00  0.92  0.00  0.00  0.00  0.01  0.00
  YSB1171HS02004479       1.00   0.04  0.00  0.00  0.95  0.00  0.00  0.01  0.08  0.00
  YSB1174YSB1171          1.00   0.05  0.02  0.00  0.93  0.00  0.00  0.00  0.00  0.00
  YSB6556YSB1171          1.00   0.04  0.04  0.00  0.92  0.00  0.00  0.00  0.00  0.00
  
  
  *************************
  Conduit Surcharge Summary
  *************************
  
  ----------------------------------------------------------------------------
                                                           Hours        Hours 
                         --------- Hours Full --------   Above Full   Capacity
  Conduit                Both Ends  Upstream  Dnstream   Normal Flow   Limited
  ----------------------------------------------------------------------------
  HS02004478WS02006287        1.81      1.81      1.89      0.01         0.01
  HS02004479HS02004480        1.93      1.93      1.94      0.01         0.01
  HS02004480HS02004478        1.86      1.92      1.86      2.30         1.86
  HS02004770HS02004777        1.86      1.87      1.87      0.70         0.53
  HS02004777HS02004785        1.83      1.83      1.87      0.01         0.01
  HS02004785HS02004788        1.82      1.83      1.82      2.15         1.81
  HS02004788HS02004792        1.82      1.82      1.90      0.01         0.01
  HS02004792HS02004799        1.90      1.90      1.96      0.01         0.01
  HS02004799HS02004480        1.92      1.92      1.96      1.99         0.01
  HS02004802HS02004478        1.86      1.86      1.93      0.01         0.01
  HS02004807HS02004802        1.90      1.90      1.92      0.15         0.20
  HS02004817HS02004807        1.90      1.90      2.11      0.01         0.01
  HS02004817HS02004824        1.82      1.82      2.11      0.01         0.01
  HS02004824HS02004830        1.79      1.79      1.82      0.01         0.01
  HS02004830HS02004837        1.39      1.39      1.80      0.01         0.01
  HS02004837HS02004842        1.39      1.39      1.85      0.01         0.01
  HS02004842HS02004848        1.27      1.27      1.85      0.01         0.01
  HS02004848HS02004852        1.27      1.27      1.47      0.04         0.01
  HS02004852HS02004856        1.47      1.47      1.74      0.03         0.01
  HS02004856HS02004862        1.37      1.37      1.75      0.02         0.01
  HS02004862HS02004870        1.75      1.75      1.77      0.03         0.04
  HS02004870HS02004876        1.77      1.77      1.83      0.01         0.01
  HS02004876HS02004881        1.81      1.83      1.81      2.21         1.81
  HS02004881HS02006253        1.81      1.81      2.90      0.01         0.01
  HS02004901HS02004770        1.87      1.87      1.87      0.37         0.05
  WS02003072WS02003073        0.01      0.01      0.01      3.19         0.01
  WS02004401WS02004402        2.30      2.30      2.31      2.20         2.16
  WS02004402WS02004403        2.31      2.31      2.32      2.31         2.28
  WS02004403WS02004404        2.32      2.32      2.50      0.01         0.02
  WS02004404WS02004405        2.45      2.50      2.45      3.72         2.45
  WS02004405WS02004406        2.42      2.45      2.42      2.88         2.42
  WS02004406WS02004407        0.01      0.01      2.42      0.01         0.01
  WS02004407WS02004409        0.01      0.01      1.97      0.01         0.01
  WS02004409WS02004410        1.95      1.97      1.95      2.26         1.95
  WS02004410WS02004411        1.93      1.95      1.93      2.28         1.93
  WS02004411WS02004412        1.90      1.93      1.90      2.30         1.90
  WS02004412WS02004413        1.90      1.90      2.11      0.01         0.01
  WS02004413WS02003067        0.01      0.01      2.11      0.01         0.01
  WS02006109WS02006110        2.80      2.80      3.04      2.81         0.01
  WS02006110WS02006113        2.10      2.10      3.03      1.37         0.01
  WS02006111WS02006112        2.07      2.07      3.12      0.01         0.01
  WS02006112WS02006115        2.26      2.26      2.96      0.01         0.01
  WS02006113WS02006111        2.09      2.10      2.09      2.19         2.08
  WS02006115WS02006116        2.27      2.27      2.27      2.28         2.24
  WS02006116WS02004401        2.29      2.29      2.30      2.30         2.27
  WS02006228WS02006109        3.03      3.04      3.03      3.31         3.03
  WS02006229WS02006228        3.03      3.03      3.03      3.12         3.02
  WS02006230WS02006229        3.05      3.06      3.05      3.95         1.03
  WS02006231WS02006230        2.57      2.57      2.86      3.70         2.00
  WS02006232WS02006231        2.82      2.82      2.99      0.03         0.43
  WS02006234WS02006232        2.95      2.95      2.99      0.03         0.01
  WS02006235WS02006234        2.93      2.94      2.95      3.50         1.97
  WS02006238WS02006235        2.96      2.96      2.96      0.02         0.92
  WS02006239WS02006238        2.95      2.96      2.96      2.74         0.69
  WS02006240WS02006239        2.94      2.94      2.94      2.73         0.68
  WS02006242WS02006240        2.94      2.94      2.95      2.78         1.97
  WS02006243WS02006242        2.93      2.93      2.95      0.01         0.01
  WS02006245WS02006243        2.92      2.92      2.93      0.76         0.66
  WS02006247WS02006245        2.92      2.93      2.92      3.05         0.90
  WS02006248WS02006247        2.92      2.92      2.92      0.01         0.01
  WS02006249WS02006248        2.91      2.91      2.92      0.98         0.01
  WS02006251WS02006249        2.91      2.91      2.92      3.04         2.90
  WS02006252WS02006251        3.03      3.03      3.04      1.90         0.01
  WS02006253WS02006251        2.91      2.91      2.93      1.99         0.01
  WS02006256WS02006235        3.58      3.59      5.09      0.51         0.01
  WS02006280WS02006229        1.94      1.94      1.98      0.01         0.01
  WS02006284WS02006280        1.90      1.90      1.94      0.01         0.01
  WS02006287WS02006284        1.86      1.86      1.91      0.55         0.55
  YS02001580YS02001583        1.83      1.83      1.86      0.01         0.01
  YS02001583YS02001586        1.83      1.83      1.95      0.01         0.01
  YS02001586YS02001590        1.95      1.95      1.99      0.01         0.01
  YS02001590YS02001593        2.00      2.00      2.01      2.00         0.01
  YS02001593YS02001596        2.01      2.01      2.07      0.01         0.01
  YS02001596YS02001600        2.09      2.09      2.15      0.01         0.01
  YS02001600YS02001601        2.18      2.18      2.33      0.01         0.01
  YS02001601YS02001602        2.28      2.28      2.35      2.12         0.01
  YS02001602YS02001605        2.26      2.26      2.28      2.81         0.01
  YS02001605YS02001607        2.25      2.26      2.26      2.22         2.18
  YS02001607YS02001610        2.00      2.00      2.02      0.01         0.01
  YS02001610YS02001613        2.00      2.00      2.02      0.01         0.01
  YS02001613YS02001616        1.97      1.97      2.00      0.01         0.01
  YS02001616YS02001619        1.96      1.96      1.97      0.01         0.01
  YS02001619YS02001622        1.96      1.96      1.97      1.93         1.65
  YS02001622YS02001625        1.97      1.97      2.09      0.01         0.01
  YS02001625YS02001629        1.93      1.93      2.09      0.01         0.01
  YS02001629YS02163301        2.11      2.11      2.12      0.06         0.07
  YS02001633YS02163601        2.14      2.14      2.18      0.14         0.16
  YS02001641YS02001644        2.13      2.14      2.13      2.40         2.12
  YS02001644YS02001647        1.96      1.96      2.13      0.03         0.01
  YS02001647YS02001649        1.96      1.96      2.08      0.01         0.01
  YS02001649YS02001757        2.08      2.08      2.16      0.21         0.19
  YS02001652YS02001649        1.94      1.94      2.08      0.01         0.01
  YS02001655YS02001652        1.78      1.78      1.90      0.01         0.01
  YS02001658YS02001655        0.59      0.59      1.78      0.01         0.01
  YS02001661YS02001658        0.01      0.01      0.59      0.01         0.01
  YS02001745YS02001748        0.01      0.01      0.05      0.01         0.01
  YS02001748YS02001751        0.41      0.41      1.63      0.01         0.01
  YS02001751YS02001754        1.63      1.63      1.85      0.01         0.01
  YS02001754YS02001757        1.89      1.89      2.16      0.01         0.01
  YS02001757CaochengTiaoxuchi        2.10      2.16      2.53      0.63         0.54
  YS02001759YS02001757        2.08      2.08      2.16      0.01         0.01
  YS02001762YS02001759        2.05      2.05      2.08      0.01         0.02
  YS02001765YS02001762        2.01      2.01      2.05      0.01         0.01
  YS02001767YS02001765        1.98      1.98      2.01      0.01         0.02
  YS02001770YS02001767        1.97      1.97      1.98      1.86         1.35
  YS02001774YS02001770        1.97      1.97      2.03      0.01         0.01
  YS02001779YS02001774        1.84      1.84      2.03      0.01         0.01
  YS02001783YS02001784        1.57      1.80      1.57      1.90         1.57
  YS02001784YS02001785        1.14      1.57      1.14      2.00         1.14
  YS02001786YS02001788        0.01      1.14      0.01      1.96         0.01
  YS02001790YS02001791        0.01      0.01      0.01      1.51         0.01
  YS02001793JiankangQianchi        0.01      0.01      7.69      0.01         0.01
  YS02001882YS02001884        1.29      1.29      1.35      0.01         0.01
  YS02001884YS02001887        1.53      1.53      1.78      0.01         0.01
  YS02001887YS02001890        1.80      1.80      1.81      0.01         0.01
  YS02001890YS02001895        1.26      1.26      1.83      0.01         0.01
  YS02001895YS02001898        1.25      1.25      1.26      0.01         0.01
  YS02001898YS02001901        1.27      1.27      1.53      0.01         0.01
  YS02001901YS02001904        1.43      1.43      1.53      0.01         0.01
  YS02001904YS02001907        1.43      1.43      1.94      0.01         0.01
  YS02001907YS02006553        2.00      2.00      2.02      0.01         0.01
  YS02001910YS02001907        1.83      1.83      1.94      0.01         0.01
  YS02001915YS02001910        1.30      1.30      1.83      0.01         0.01
  YS02001918YS02001915        1.11      1.11      1.30      0.01         0.01
  YS02001920YS02001918        1.11      1.11      1.14      0.01         0.01
  YS02001923YS02001920        1.04      1.04      1.14      0.01         0.01
  YS02001926YS02001923        0.01      0.01      0.01      0.01         0.01
  YS02001929YS02001926        0.01      0.01      0.01      0.01         0.01
  YS02006553YS02006556        1.89      1.89      1.95      0.01         0.01
  YS02006556YS02006558        1.92      1.92      1.96      0.01         0.01
  YS02006558YS02006561        1.17      1.88      1.17      1.98         1.17
  YS02006561YS02001783        1.07      1.07      1.80      0.01         0.01
  YS02163301YS02001633        2.12      2.12      2.16      0.01         0.01
  YS02163601YS02164001        2.13      2.13      2.18      0.09         0.01
  YS02164001YS02001641        2.13      2.13      2.14      0.89         0.92
  YSB1154YSB6556              1.95      1.95      2.00      0.01         0.01
  YSB1171HS02004479           1.90      1.90      2.00      0.01         0.01
  YSB1174YSB1171              1.98      1.98      2.06      0.01         0.01
  YSB6556YSB1171              1.95      1.95      2.11      0.01         0.01
  
  
  ***************
  Pumping Summary
  ***************
  
  ---------------------------------------------------------------------------------------------------------
                                                  Min       Avg       Max     Total     Power    % Time Off
                        Percent   Number of      Flow      Flow      Flow    Volume     Usage    Pump Curve
  Pump                 Utilized   Start-Ups       LPS       LPS       LPS  10^6 ltr     Kw-hr    Low   High
  ---------------------------------------------------------------------------------------------------------
  CC-R1                   35.54           2      0.00    683.00    683.00     6.991    136.02    0.0   43.6
  CC-R2                   34.44           2      0.00    683.00    683.00     6.774    132.00    0.0   45.0
  CC-S1                   37.08           2      0.00    200.00    200.00     2.136     13.45    0.0   29.1
  CC-S2                   36.32           2      0.00    200.00    200.00     2.092     13.06    0.0   29.7
  JK-R1                   18.47           8      0.00   1000.00   1000.00     5.320     51.02    0.0    0.0
  JK-R2                    0.16           1      0.00   1000.00   1000.00     0.047      0.36    0.0    0.0
  JK-S                    29.90           3      0.00    300.00    300.00     2.583     41.58    0.0    0.0
  XR-1                    97.91           2      0.00     95.00     95.00     2.679      9.62    0.0    0.0
  XR-2                    93.94           2      0.00     95.00     95.00     2.570      8.78    0.0    0.0
  XR-3                     0.00           1      0.00     95.00     95.00     0.000      0.00    0.0    0.0
  XR-4                     0.00           1      0.00     95.00     95.00     0.000      0.00    0.0    0.0
  

  Analysis begun on:  Tue Jul 11 11:23:50 2023
  Analysis ended on:  Tue Jul 11 11:23:55 2023
  Total elapsed time: 00:00:05