
  OWA STORM WATER MANAGEMENT MODEL - VERSION v5.1.14 (OWA 2022-07-31)
  --------------------------------------------------------------

  WARNING 04: minimum elevation drop used for Conduit WS02004404WS02004405
  WARNING 03: negative offset ignored for Link YS02001904YS02001907
  
  *********************************************************
  NOTE: The summary statistics displayed in this report are
  based on results found at every computational time step,  
  not just on results from each reporting time step.
  *********************************************************
  
  ****************
  Analysis Options
  ****************
  Flow Units ............... LPS
  Process Models:
    Rainfall/Runoff ........ YES
    RDII ................... NO
    Snowmelt ............... NO
    Groundwater ............ NO
    Flow Routing ........... YES
    Ponding Allowed ........ NO
    Water Quality .......... NO
  Infiltration Method ...... HORTON
  Flow Routing Method ...... DYNWAVE
  Surcharge Method ......... EXTRAN
  Starting Date ............ 08/28/2015 08:00:00
  Ending Date .............. 08/28/2015 16:00:00
  Antecedent Dry Days ...... 8.0
  Report Time Step ......... 00:01:00
  Wet Time Step ............ 00:01:00
  Dry Time Step ............ 00:01:00
  Routing Time Step ........ 30.00 sec
  Variable Time Step ....... YES
  Maximum Trials ........... 8
  Number of Threads ........ 4
  Head Tolerance ........... 0.001500 m
  
  
  **************************        Volume         Depth
  Runoff Quantity Continuity     hectare-m            mm
  **************************     ---------       -------
  Total Precipitation ......         6.831       112.771
  Evaporation Loss .........         0.000         0.000
  Infiltration Loss ........         0.259         4.276
  Surface Runoff ...........         6.512       107.501
  Final Storage ............         0.061         1.010
  Continuity Error (%) .....        -0.015
  
  
  **************************        Volume        Volume
  Flow Routing Continuity        hectare-m      10^6 ltr
  **************************     ---------     ---------
  Dry Weather Inflow .......         0.630         6.296
  Wet Weather Inflow .......         6.511        65.112
  Groundwater Inflow .......         0.000         0.000
  RDII Inflow ..............         0.000         0.000
  External Inflow ..........         0.105         1.045
  External Outflow .........         3.696        36.963
  Flooding Loss ............         3.509        35.092
  Evaporation Loss .........         0.000         0.000
  Exfiltration Loss ........         0.000         0.000
  Initial Stored Volume ....         0.303         3.031
  Final Stored Volume ......         0.352         3.517
  Continuity Error (%) .....        -0.118
  
  
  *************************
  Highest Continuity Errors
  *************************
  Node YS02001583 (-5.88%)
  Node YS02001884 (5.07%)
  Node YS02001774 (1.30%)
  
  
  ***************************
  Time-Step Critical Elements
  ***************************
  Link WS02006280WS02006229 (38.18%)
  Link YS02001791YS02001793 (27.30%)
  Link WS02006238WS02006235 (10.27%)
  Link WS02004404WS02004405 (6.41%)
  Link WS02006252WS02006251 (2.78%)
  
  
  ********************************
  Highest Flow Instability Indexes
  ********************************
  Link WS02006238WS02006235 (41)
  Link YS02001602YS02001605 (41)
  Link WS02004404WS02004405 (40)
  Link WS02006229WS02006228 (40)
  Link WS02006256WS02006235 (39)
  
  
  *************************
  Routing Time Step Summary
  *************************
  Minimum Time Step           :     0.00 sec
  Average Time Step           :     2.64 sec
  Maximum Time Step           :     6.46 sec
  Percent in Steady State     :    -0.00
  Average Iterations per Step :     4.24
  Percent Not Converging      :    21.35
  
  
  ***************************
  Subcatchment Runoff Summary
  ***************************
  
  ------------------------------------------------------------------------------------------------------------------------------
                            Total      Total      Total      Total     Imperv       Perv      Total       Total     Peak  Runoff
                           Precip      Runon       Evap      Infil     Runoff     Runoff     Runoff      Runoff   Runoff   Coeff
  Subcatchment                 mm         mm         mm         mm         mm         mm         mm    10^6 ltr      LPS
  ------------------------------------------------------------------------------------------------------------------------------
  sub0                     112.77       0.00       0.00       1.05     103.65       6.84     110.49        0.09    17.00   0.980
  sub1                     112.77       0.00       0.00       1.83      99.12      10.57     109.70        0.73   137.52   0.973
  sub10                    112.77       0.00       0.00       1.29     102.47       7.74     110.21        1.22   229.44   0.977
  sub11                    112.77       0.00       0.00       1.26     102.49       7.76     110.25        1.28   242.64   0.978
  sub12                    112.77       0.00       0.00       2.05      96.95      12.61     109.56        0.96   182.36   0.972
  sub14                    112.77       0.00       0.00       1.44     101.37       8.71     110.08        1.05   198.30   0.976
  sub15                    112.77       0.00       0.00       5.69      77.97      28.14     106.11        1.83   333.09   0.941
  sub16                    112.77       0.00       0.00       5.89      74.66      31.33     105.98        1.11   208.14   0.940
  sub17                    112.77       0.00       0.00       5.75      75.77      30.34     106.11        0.91   170.40   0.941
  sub2                     112.77       0.00       0.00       8.10      70.14      33.63     103.77        0.97   160.85   0.920
  sub22                    112.77       0.00       0.00       8.61      63.50      39.88     103.38        6.53  1135.96   0.917
  sub23                    112.77       0.00       0.00       7.04      70.19      34.69     104.88        5.00   906.63   0.930
  sub3                     112.77       0.00       0.00       8.80      70.10      32.93     103.03        2.32   369.62   0.914
  sub4                     112.77       0.00       0.00       2.05      98.94      10.36     109.30        2.28   402.61   0.969
  sub5                     112.77       0.00       0.00       1.12     103.58       6.77     110.35        1.25   235.47   0.979
  sub60                    112.77       0.00       0.00       1.94      98.04      11.59     109.64        1.44   273.53   0.972
  sub61                    112.77       0.00       0.00       2.82      92.48      16.35     108.83        2.00   379.72   0.965
  sub62                    112.77       0.00       0.00       1.29     102.46       7.73     110.19        3.02   569.17   0.977
  sub63                    112.77       0.00       0.00       5.23      79.10      27.48     106.58        2.42   452.23   0.945
  sub64                    112.77       0.00       0.00       2.64      94.65      14.28     108.92        2.62   489.28   0.966
  sub65                    112.77       0.00       0.00       2.29      96.85      12.38     109.23        3.01   559.65   0.969
  sub66                    112.77       0.00       0.00       6.44      78.98      26.27     105.25        4.91   818.71   0.933
  sub67                    112.77       0.00       0.00       1.23     102.51       7.79     110.31        2.05   389.44   0.978
  sub68                    112.77       0.00       0.00       2.34      95.80      13.45     109.25        3.01   569.37   0.969
  sub69                    112.77       0.00       0.00       2.14      95.74      14.78     110.52        4.09   751.65   0.980
  sub7                     112.77       0.00       0.00       1.42     101.39       8.73     110.12        0.37    70.39   0.976
  sub70                    112.77       0.00       0.00       7.02      74.26      31.32     105.58        3.05   478.32   0.936
  sub71                    112.77       0.00       0.00       1.33     102.42       7.69     110.11        2.88   537.01   0.976
  sub72                    112.77       0.00       0.00       1.19     103.47       6.71     110.17        1.51   276.52   0.977
  sub8                     112.77       0.00       0.00       1.44     101.37       8.71     110.09        0.70   133.23   0.976
  sub9                     112.77       0.00       0.00       1.44     101.37       8.71     110.08        0.53   100.24   0.976
  
  
  ******************
  Node Depth Summary
  ******************
  
  ---------------------------------------------------------------------------------
                                 Average  Maximum  Maximum  Time of Max    Reported
                                   Depth    Depth      HGL   Occurrence   Max Depth
  Node                 Type       Meters   Meters   Meters  days hr:min      Meters
  ---------------------------------------------------------------------------------
  HS02004478           JUNCTION     0.49     1.59    10.81     0  01:15        1.49
  HS02004479           JUNCTION     0.59     1.74    10.95     0  01:11        1.65
  HS02004480           JUNCTION     0.55     1.71    10.95     0  01:11        1.61
  HS02004770           JUNCTION     0.54     1.42    11.25     0  01:11        1.42
  HS02004777           JUNCTION     0.56     1.48    11.28     0  01:11        1.46
  HS02004785           JUNCTION     0.45     1.46    11.36     0  01:11        1.33
  HS02004788           JUNCTION     0.42     1.42    11.32     0  01:11        1.32
  HS02004792           JUNCTION     0.54     1.60    11.12     0  01:09        1.60
  HS02004799           JUNCTION     0.64     1.76    10.97     0  01:11        1.76
  HS02004802           JUNCTION     0.59     1.80    10.93     0  01:15        1.62
  HS02004807           JUNCTION     0.56     1.92    11.09     0  01:15        1.63
  HS02004817           JUNCTION     0.86     2.44    11.29     0  01:15        1.95
  HS02004824           JUNCTION     0.41     2.01    11.41     0  01:15        1.42
  HS02004830           JUNCTION     0.40     2.03    11.50     0  01:15        1.35
  HS02004837           JUNCTION     0.35     2.01    11.59     0  01:15        1.24
  HS02004842           JUNCTION     0.64     2.22    11.49     0  01:15        1.55
  HS02004848           JUNCTION     0.32     2.07    11.67     0  01:15        1.21
  HS02004852           JUNCTION     0.34     2.12    11.63     0  01:15        1.26
  HS02004856           JUNCTION     0.40     2.07    11.50     0  01:15        1.29
  HS02004862           JUNCTION     0.36     2.00    11.38     0  01:15        1.28
  HS02004870           JUNCTION     0.36     2.05    11.33     0  01:15        1.29
  HS02004876           JUNCTION     0.43     2.11    11.14     0  01:15        1.42
  HS02004881           JUNCTION     0.36     1.84    10.87     0  01:15        1.27
  HS02004901           JUNCTION     0.54     1.42    11.24     0  01:11        1.42
  WS02001211           JUNCTION     0.67     0.86     5.70     0  01:20        0.85
  WS02001212           JUNCTION     0.41     0.63     5.70     0  01:19        0.58
  WS02001213           JUNCTION     0.65     0.97     5.73     0  01:19        0.94
  WS02003059           JUNCTION     0.71     0.97     5.66     0  01:21        0.96
  WS02003060           JUNCTION     0.44     0.69     5.62     0  01:22        0.69
  WS02003066           JUNCTION     0.27     0.45     6.00     0  01:14        0.45
  WS02003067           JUNCTION     0.61     0.93     6.25     0  01:13        0.90
  WS02003069           JUNCTION     0.49     0.77     5.36     0  01:22        0.77
  WS02003072           JUNCTION     0.55     0.81     5.18     0  01:21        0.80
  WS02003073           JUNCTION     0.33     0.51     4.58     0  01:22        0.51
  WS02004138           JUNCTION     0.13     0.14     7.39     0  00:29        0.14
  WS02004139           JUNCTION     0.60     0.78     5.69     0  01:17        0.77
  WS02004401           JUNCTION     0.96     2.66     8.66     0  01:11        1.78
  WS02004402           JUNCTION     0.96     2.74     8.70     0  01:11        1.75
  WS02004403           JUNCTION     0.95     3.03     8.96     0  01:11        1.62
  WS02004404           JUNCTION     1.01     3.19     9.04     0  01:11        1.65
  WS02004405           JUNCTION     0.99     3.06     8.91     0  01:11        1.60
  WS02004406           JUNCTION     0.96     2.34     8.17     0  01:11        1.51
  WS02004407           JUNCTION     0.38     0.84     7.16     0  01:31        0.84
  WS02004409           JUNCTION     0.69     1.36     7.13     0  01:12        1.35
  WS02004410           JUNCTION     0.68     1.29     7.01     0  01:13        1.25
  WS02004411           JUNCTION     0.67     1.34     7.02     0  01:13        1.17
  WS02004412           JUNCTION     0.65     1.40     7.04     0  01:13        1.10
  WS02004413           JUNCTION     0.77     2.75     8.22     0  01:13        1.14
  WS02006109           JUNCTION     1.34     2.64     9.26     0  01:11        2.64
  WS02006110           JUNCTION     1.22     2.55     9.14     0  01:11        2.39
  WS02006111           JUNCTION     0.67     2.05     8.76     0  01:11        1.62
  WS02006112           JUNCTION     1.23     2.68     8.56     0  01:11        2.24
  WS02006113           JUNCTION     0.76     2.11     9.00     0  01:11        1.74
  WS02006115           JUNCTION     0.92     2.61     8.75     0  01:11        1.84
  WS02006116           JUNCTION     0.97     2.75     8.79     0  01:11        1.83
  WS02006228           JUNCTION     1.46     3.03     9.68     0  01:11        3.03
  WS02006229           JUNCTION     1.50     3.25     9.94     0  01:11        3.21
  WS02006230           JUNCTION     1.34     2.65     9.39     0  01:10        2.65
  WS02006231           JUNCTION     1.02     2.24     9.36     0  01:09        2.24
  WS02006232           JUNCTION     1.09     2.18     9.22     0  01:09        2.18
  WS02006234           JUNCTION     0.96     1.96     9.12     0  01:10        1.96
  WS02006235           JUNCTION     0.96     2.00     9.16     0  01:10        2.00
  WS02006238           JUNCTION     0.98     2.12     9.26     0  01:10        1.98
  WS02006239           JUNCTION     0.90     2.03     9.24     0  01:10        1.82
  WS02006240           JUNCTION     0.83     2.10     9.39     0  01:10        1.65
  WS02006242           JUNCTION     0.84     1.55     8.82     0  01:10        1.55
  WS02006243           JUNCTION     0.72     1.48     8.90     0  01:10        1.48
  WS02006245           JUNCTION     0.69     1.56     9.04     0  01:11        1.48
  WS02006247           JUNCTION     0.68     1.47     8.97     0  01:11        1.42
  WS02006248           JUNCTION     0.62     1.10     8.69     0  01:11        1.10
  WS02006249           JUNCTION     0.63     1.09     8.69     0  01:11        1.09
  WS02006251           JUNCTION     0.94     2.18     9.85     0  01:15        2.08
  WS02006252           JUNCTION     0.67     1.50     9.74     0  00:00        1.50
  WS02006253           JUNCTION     1.10     3.05    10.70     0  01:15        2.61
  WS02006256           JUNCTION     1.36     2.35     9.28     0  00:00        2.35
  WS02006280           JUNCTION     0.60     1.82    10.09     0  01:11        1.70
  WS02006284           JUNCTION     0.84     2.02    10.42     0  01:11        1.92
  WS02006287           JUNCTION     0.58     1.76    10.71     0  01:11        1.67
  WSF200               JUNCTION     0.28     0.57     5.80     0  01:14        0.56
  YS02001580           JUNCTION     0.25     1.05     9.59     0  01:12        0.78
  YS02001583           JUNCTION     0.29     0.98     9.47     0  01:12        0.83
  YS02001586           JUNCTION     0.42     1.13     9.30     0  01:12        1.13
  YS02001590           JUNCTION     0.55     1.40     9.26     0  01:09        1.40
  YS02001593           JUNCTION     0.48     1.46     9.32     0  01:09        1.46
  YS02001596           JUNCTION     0.64     1.80     9.22     0  01:09        1.71
  YS02001600           JUNCTION     0.74     1.87     9.00     0  01:09        1.87
  YS02001601           JUNCTION     0.92     2.06     8.90     0  01:09        2.06
  YS02001602           JUNCTION     0.81     1.87     8.77     0  01:12        1.87
  YS02001605           JUNCTION     0.77     1.78     8.68     0  01:13        1.78
  YS02001607           JUNCTION     0.73     1.68     8.53     0  02:05        1.68
  YS02001610           JUNCTION     0.77     1.68     8.48     0  01:12        1.68
  YS02001613           JUNCTION     0.73     1.70     8.54     0  01:13        1.70
  YS02001616           JUNCTION     0.67     1.61     8.52     0  01:12        1.61
  YS02001619           JUNCTION     0.65     1.61     8.54     0  01:12        1.61
  YS02001622           JUNCTION     0.64     1.62     8.52     0  01:13        1.62
  YS02001625           JUNCTION     0.89     1.78     8.38     0  01:12        1.78
  YS02001629           JUNCTION     0.81     1.85     8.40     0  01:12        1.85
  YS02001633           JUNCTION     0.89     2.08     8.53     0  02:05        2.08
  YS02001641           JUNCTION     0.87     2.08     8.52     0  01:42        2.08
  YS02001644           JUNCTION     0.86     1.92     8.35     0  01:24        1.92
  YS02001647           JUNCTION     0.66     1.89     8.50     0  02:05        1.89
  YS02001649           JUNCTION     0.74     2.05     8.44     0  01:42        2.05
  YS02001652           JUNCTION     0.62     1.91     8.50     0  02:05        1.91
  YS02001655           JUNCTION     0.50     1.60     8.45     0  02:05        1.60
  YS02001658           JUNCTION     0.37     1.40     8.55     0  01:23        1.19
  YS02001661           JUNCTION     0.31     0.95     8.35     0  02:05        0.93
  YS02001664           JUNCTION     0.09     0.42     8.34     0  02:06        0.41
  YS02001745           JUNCTION     0.20     0.69     8.20     0  02:05        0.68
  YS02001748           JUNCTION     0.37     1.36     8.44     0  01:28        1.12
  YS02001751           JUNCTION     0.45     1.46     8.34     0  01:42        1.46
  YS02001754           JUNCTION     0.58     1.84     8.45     0  01:42        1.84
  YS02001757           JUNCTION     0.78     2.21     8.47     0  01:42        2.21
  YS02001759           JUNCTION     0.72     2.21     8.57     0  01:42        2.21
  YS02001762           JUNCTION     0.71     2.15     8.55     0  01:42        2.15
  YS02001765           JUNCTION     0.68     2.10     8.55     0  01:42        2.10
  YS02001767           JUNCTION     0.67     2.03     8.52     0  01:42        2.03
  YS02001770           JUNCTION     0.68     1.95     8.44     0  01:42        1.95
  YS02001774           JUNCTION     0.74     2.05     8.47     0  01:42        2.05
  YS02001779           JUNCTION     0.56     1.68     8.37     0  01:42        1.68
  YS02001783           JUNCTION     0.44     1.36     7.51     0  01:15        1.21
  YS02001784           JUNCTION     0.43     1.20     7.26     0  01:15        1.11
  YS02001786           JUNCTION     0.35     0.94     6.97     0  01:15        0.86
  YS02001788           JUNCTION     0.25     0.62     6.60     0  01:24        0.62
  YS02001790           JUNCTION     0.29     0.72     6.37     0  01:29        0.72
  YS02001791           JUNCTION     0.18     0.44     5.91     0  01:30        0.43
  YS02001793           JUNCTION     0.09     0.31     5.14     0  01:59        0.27
  YS02001882           JUNCTION     0.56     1.73     8.45     0  01:15        1.60
  YS02001884           JUNCTION     0.65     1.81     8.43     0  01:15        1.70
  YS02001887           JUNCTION     0.72     1.84     8.38     0  01:15        1.79
  YS02001890           JUNCTION     0.75     1.81     8.32     0  01:15        1.81
  YS02001895           JUNCTION     0.53     1.59     8.34     0  01:15        1.54
  YS02001898           JUNCTION     0.53     1.61     8.34     0  01:15        1.55
  YS02001901           JUNCTION     0.65     1.72     8.33     0  01:15        1.68
  YS02001904           JUNCTION     0.63     1.66     8.29     0  01:15        1.64
  YS02001907           JUNCTION     0.94     1.96     8.25     0  01:15        1.96
  YS02001910           JUNCTION     0.75     1.98     8.49     0  01:16        1.82
  YS02001915           JUNCTION     0.56     1.93     8.65     0  01:16        1.67
  YS02001918           JUNCTION     0.38     1.81     8.88     0  01:16        1.37
  YS02001920           JUNCTION     0.45     2.00     9.01     0  01:16        1.45
  YS02001923           JUNCTION     0.30     1.84     9.10     0  01:16        1.23
  YS02001926           JUNCTION     0.29     1.74     9.18     0  01:16        1.06
  YS02001929           JUNCTION     0.18     1.58     9.27     0  01:16        0.86
  YS02006553           JUNCTION     0.94     2.01     8.29     0  01:15        1.99
  YS02006556           JUNCTION     0.91     2.02     8.33     0  01:15        1.92
  YS02006558           JUNCTION     0.95     2.08     8.35     0  01:15        1.96
  YS02006561           JUNCTION     0.29     1.06     7.72     0  01:15        0.87
  YS02163301           JUNCTION     0.83     1.96     8.48     0  01:42        1.96
  YS02163601           JUNCTION     0.92     2.08     8.48     0  01:42        2.08
  YS02164001           JUNCTION     0.85     2.10     8.56     0  01:42        2.10
  YSB1154              JUNCTION     0.73     2.00    11.06     0  01:11        1.84
  YSB1171              JUNCTION     0.87     1.95    10.85     0  01:11        1.95
  YSB1174              JUNCTION     0.68     1.85    10.96     0  02:05        1.85
  YSB6556              JUNCTION     0.63     1.80    10.97     0  01:11        1.72
  CC-1                 OUTFALL      0.00     0.00     0.00     0  00:00        0.00
  CC-2                 OUTFALL      0.00     0.00     0.00     0  00:00        0.00
  JK-1                 OUTFALL      0.00     0.00     0.00     0  00:00        0.00
  JK-2                 OUTFALL      0.00     0.00     0.00     0  00:00        0.00
  WSC                  OUTFALL      0.33     0.51     1.18     0  01:24        0.51
  CC-storage           STORAGE      1.16     2.14     7.64     0  02:52        2.14
  JK-storage           STORAGE      2.33     4.23     5.03     0  01:59        4.20
  XR-storage           STORAGE      7.88     9.26     7.26     0  08:00        9.26
  
  
  *******************
  Node Inflow Summary
  *******************
  
  -------------------------------------------------------------------------------------------------
                                  Maximum  Maximum                  Lateral       Total        Flow
                                  Lateral    Total  Time of Max      Inflow      Inflow     Balance
                                   Inflow   Inflow   Occurrence      Volume      Volume       Error
  Node                 Type           LPS      LPS  days hr:min    10^6 ltr    10^6 ltr     Percent
  -------------------------------------------------------------------------------------------------
  HS02004478           JUNCTION      0.00  2302.58     0  01:11           0        15.9      -0.011
  HS02004479           JUNCTION      0.00   395.62     0  01:17           0        2.08       0.051
  HS02004480           JUNCTION      0.00  2117.13     0  01:12           0          13       0.007
  HS02004770           JUNCTION    906.63   906.63     0  01:31           5        5.24       0.050
  HS02004777           JUNCTION      0.03   744.78     0  01:11    0.000864        3.37       0.158
  HS02004785           JUNCTION      0.15   747.89     0  01:11     0.00432        3.37       0.013
  HS02004788           JUNCTION    334.76   918.93     0  01:11        1.87        5.24      -0.001
  HS02004792           JUNCTION   1136.24  1829.23     0  01:32        6.54        11.8      -0.000
  HS02004799           JUNCTION    198.30  1780.34     0  01:11        1.05        10.9       0.051
  HS02004802           JUNCTION      0.00   618.56     0  01:31           0        3.03       0.110
  HS02004807           JUNCTION    242.64   618.32     0  01:31        1.28        3.09       0.141
  HS02004817           JUNCTION      0.60   458.23     0  01:12      0.0173        1.88       0.893
  HS02004824           JUNCTION    402.66   655.00     0  01:12        2.28        2.68       0.023
  HS02004830           JUNCTION      0.15   667.31     0  01:12     0.00432        1.22       0.078
  HS02004837           JUNCTION    235.79   878.54     0  01:12         1.4        2.42       0.028
  HS02004842           JUNCTION      0.00   837.65     0  01:12           0        2.22       0.591
  HS02004848           JUNCTION    369.62  1034.02     0  01:12        2.32        4.41      -0.005
  HS02004852           JUNCTION      0.00   996.41     0  01:13           0         4.3      -0.004
  HS02004856           JUNCTION    100.24  1065.39     0  01:15       0.529        4.83       0.033
  HS02004862           JUNCTION    161.05  1164.02     0  01:15       0.973         5.8       0.001
  HS02004870           JUNCTION    133.23  1242.72     0  01:14       0.703         6.5       0.001
  HS02004876           JUNCTION    137.52  1375.22     0  01:14       0.729        7.23       0.011
  HS02004881           JUNCTION     70.39  1353.98     0  01:14       0.371         7.6       0.008
  HS02004901           JUNCTION    208.14   473.92     0  01:31        1.11        2.32       0.076
  WS02001211           JUNCTION      7.35   375.95     0  01:18       0.212        5.45       0.609
  WS02001212           JUNCTION      0.00   491.47     0  01:15           0        5.43       0.289
  WS02001213           JUNCTION      0.00   456.21     0  01:15           0        5.42       0.318
  WS02003059           JUNCTION      0.00   516.18     0  01:14           0        5.43       0.587
  WS02003060           JUNCTION     16.53  1549.03     0  01:14       0.476        17.9       0.082
  WS02003066           JUNCTION      0.00  1255.43     0  01:18           0          12       0.012
  WS02003067           JUNCTION      0.00  1251.81     0  01:32           0          12       0.035
  WS02003069           JUNCTION      0.32  1494.64     0  01:22     0.00922        17.8       0.087
  WS02003072           JUNCTION      0.00  1485.26     0  01:23           0        17.8       0.117
  WS02003073           JUNCTION      1.82  1483.27     0  01:23      0.0524        17.8       0.120
  WS02004138           JUNCTION      0.00   380.00     0  00:00           0        5.25       0.052
  WS02004139           JUNCTION      0.32   319.95     0  01:17     0.00924        5.26       0.508
  WS02004401           JUNCTION      0.00  1279.97     0  01:11           0        12.1       0.085
  WS02004402           JUNCTION      0.00  1276.84     0  01:14           0        12.1       0.087
  WS02004403           JUNCTION      0.00  1276.39     0  01:14           0        12.1       0.086
  WS02004404           JUNCTION      0.16  1277.81     0  01:14     0.00467        12.1       0.070
  WS02004405           JUNCTION      0.04  1285.66     0  01:11      0.0011        12.1       0.106
  WS02004406           JUNCTION      0.00  1293.97     0  01:11           0        12.1       0.172
  WS02004407           JUNCTION      0.00  1296.28     0  01:11           0        12.1       0.011
  WS02004409           JUNCTION      0.00  1361.52     0  01:12           0        12.1       0.026
  WS02004410           JUNCTION      0.00  1405.40     0  01:12           0        12.1       0.035
  WS02004411           JUNCTION      0.00  1327.81     0  01:12           0          12       0.048
  WS02004412           JUNCTION      0.00  1252.12     0  01:30           0          12       0.062
  WS02004413           JUNCTION      0.00  1251.83     0  01:32           0          12       0.113
  WS02006109           JUNCTION      1.23  1278.99     0  01:11      0.0354        11.9       0.067
  WS02006110           JUNCTION      0.00  1277.54     0  01:11           0        11.3       0.065
  WS02006111           JUNCTION      0.00  1279.86     0  01:11           0        11.2       0.005
  WS02006112           JUNCTION    170.40  1341.99     0  01:11        0.91        12.2       0.166
  WS02006113           JUNCTION      0.00  1275.97     0  01:11           0        11.2       0.022
  WS02006115           JUNCTION      0.00  1319.91     0  01:11           0        12.1       0.055
  WS02006116           JUNCTION      0.00  1302.95     0  01:11           0        12.1      -0.002
  WS02006228           JUNCTION      0.00  1280.50     0  01:11           0        11.8       0.024
  WS02006229           JUNCTION      0.00  2229.44     0  01:31           0          18       0.039
  WS02006230           JUNCTION     10.28   988.26     0  01:31       0.296        8.41       0.117
  WS02006231           JUNCTION      0.00   668.45     0  01:09           0        5.13      -0.142
  WS02006232           JUNCTION      0.00   658.48     0  01:09           0        5.11       0.107
  WS02006234           JUNCTION      0.00   658.50     0  01:09           0        5.08      -0.019
  WS02006235           JUNCTION      0.00   678.96     0  01:09           0        4.88       0.019
  WS02006238           JUNCTION      0.00   666.70     0  01:09           0        4.49      -0.073
  WS02006239           JUNCTION      0.00   731.97     0  01:10           0        4.44      -0.058
  WS02006240           JUNCTION      0.00   924.61     0  01:10           0        4.39      -0.092
  WS02006242           JUNCTION      0.00   849.12     0  01:10           0        4.36      -0.049
  WS02006243           JUNCTION      0.00   777.05     0  01:10           0        3.39       0.000
  WS02006245           JUNCTION      0.00   419.27     0  03:53           0        3.38       0.236
  WS02006247           JUNCTION      0.00   455.94     0  01:11           0        3.38       0.011
  WS02006248           JUNCTION      0.00   483.07     0  01:11           0        3.83       0.024
  WS02006249           JUNCTION      0.00  1323.95     0  01:30           0        10.7       0.045
  WS02006251           JUNCTION      0.08  1347.22     0  01:15     0.00222        10.8      -0.015
  WS02006252           JUNCTION      0.00   400.00     0  00:00           0        4.23      -0.005
  WS02006253           JUNCTION     17.00  1344.70     0  01:15      0.0895         7.7      -0.003
  WS02006256           JUNCTION      0.00   300.00     0  00:00           0         2.7      -0.096
  WS02006280           JUNCTION      0.00  2228.26     0  01:32           0        15.9      -0.013
  WS02006284           JUNCTION      0.10  2227.98     0  01:32     0.00275        15.9       0.003
  WS02006287           JUNCTION      0.00  2230.19     0  01:31           0        15.9       0.048
  WSF200               JUNCTION      0.00  1256.18     0  01:18           0          12       0.005
  YS02001580           JUNCTION      0.00   127.12     0  01:12           0     0.00465      -1.963
  YS02001583           JUNCTION      0.00   178.39     0  01:11           0      0.0156      -5.551
  YS02001586           JUNCTION    478.32   478.45     0  01:33        3.05        3.06       0.059
  YS02001590           JUNCTION      0.00   318.36     0  02:05           0        2.46      -0.024
  YS02001593           JUNCTION      0.00   318.43     0  02:05           0        2.46       0.006
  YS02001596           JUNCTION      0.00   318.07     0  02:06           0        2.46      -0.023
  YS02001600           JUNCTION      0.00   318.04     0  01:23           0        2.46       0.015
  YS02001601           JUNCTION    751.65  1069.48     0  01:31        4.09        6.55       0.009
  YS02001602           JUNCTION      0.00   588.81     0  01:12           0        3.41       0.012
  YS02001605           JUNCTION      0.00   588.38     0  01:11           0        3.01       0.016
  YS02001607           JUNCTION      0.00   588.55     0  01:11           0        3.01       0.056
  YS02001610           JUNCTION      0.00   577.65     0  01:11           0        3.01       0.096
  YS02001613           JUNCTION      0.00   557.58     0  01:12           0        1.71       0.109
  YS02001616           JUNCTION      0.00   518.83     0  01:11           0        1.72       0.025
  YS02001619           JUNCTION    818.71   935.83     0  01:12        4.91        6.62      -0.004
  YS02001622           JUNCTION      0.00   946.43     0  01:12           0        6.61      -0.007
  YS02001625           JUNCTION      0.00   950.34     0  01:12           0        6.62       0.195
  YS02001629           JUNCTION      0.00   954.33     0  01:12           0         2.9      -0.077
  YS02001633           JUNCTION    559.85  1344.31     0  01:15        3.01        5.91       0.054
  YS02001641           JUNCTION      0.00  1344.89     0  01:15           0         5.9       0.049
  YS02001644           JUNCTION    489.32  1740.12     0  01:15        2.62        8.51       0.037
  YS02001647           JUNCTION      0.00  1740.07     0  01:15           0        8.49       0.004
  YS02001649           JUNCTION      0.00  2086.81     0  01:14           0        10.9      -0.001
  YS02001652           JUNCTION      0.00   479.95     0  01:29           0        2.42      -0.117
  YS02001655           JUNCTION      0.15   531.94     0  01:17     0.00443        2.43       0.090
  YS02001658           JUNCTION      0.00   659.69     0  01:23           0        2.42      -0.078
  YS02001661           JUNCTION      0.00   609.79     0  02:06           0        2.42      -0.036
  YS02001664           JUNCTION    452.23   452.23     0  01:31        2.42        2.42       0.011
  YS02001745           JUNCTION    273.53   346.27     0  01:27        1.44        1.44       0.105
  YS02001748           JUNCTION      0.04   601.26     0  01:28      0.0013        1.44      -0.557
  YS02001751           JUNCTION      0.01   463.55     0  01:19    0.000317        1.45       0.090
  YS02001754           JUNCTION      0.26   320.72     0  01:28     0.00749        1.46      -0.153
  YS02001757           JUNCTION      0.00  2984.12     0  01:19           0        17.4       0.027
  YS02001759           JUNCTION    379.76   978.89     0  01:30           2        5.04      -0.015
  YS02001762           JUNCTION      0.00   595.23     0  01:30           0        3.04      -0.011
  YS02001765           JUNCTION      0.00   591.16     0  01:30           0        3.04      -0.006
  YS02001767           JUNCTION      0.54   587.87     0  01:30      0.0154        3.04      -0.002
  YS02001770           JUNCTION    569.32   586.64     0  01:17        3.02        3.07      -0.025
  YS02001774           JUNCTION      0.00   160.90     0  01:16           0      0.0698       1.316
  YS02001779           JUNCTION      0.01   162.86     0  01:16    0.000144      0.0209      -0.927
  YS02001783           JUNCTION      0.00  1147.69     0  01:21           0        7.97       0.004
  YS02001784           JUNCTION      1.06  1149.09     0  01:28      0.0305           8       0.005
  YS02001786           JUNCTION      0.06  1148.70     0  01:28     0.00162           8       0.008
  YS02001788           JUNCTION      0.07  1148.89     0  01:28     0.00204           8       0.004
  YS02001790           JUNCTION      0.15  1162.23     0  01:27     0.00446        8.01       0.013
  YS02001791           JUNCTION      0.00  1279.39     0  01:36           0        8.01      -0.042
  YS02001793           JUNCTION      0.00  1243.91     0  01:39           0        8.01       0.005
  YS02001882           JUNCTION      0.00    79.42     0  01:10           0      0.0139       4.631
  YS02001884           JUNCTION      0.00   146.78     0  01:10           0      0.0501       5.345
  YS02001887           JUNCTION    389.89   390.81     0  01:29        2.06         2.1       0.189
  YS02001890           JUNCTION      0.00   391.41     0  01:29           0        2.06       0.251
  YS02001895           JUNCTION      0.00   395.48     0  01:14           0        2.05       0.144
  YS02001898           JUNCTION      0.00   401.53     0  01:14           0        2.05      -0.047
  YS02001901           JUNCTION      0.00   410.75     0  01:14           0        2.06       0.173
  YS02001904           JUNCTION      0.00   412.21     0  01:14           0        2.07       0.121
  YS02001907           JUNCTION      0.00  1280.83     0  01:17           0        6.55       0.269
  YS02001910           JUNCTION      0.00   903.32     0  01:17           0        4.48       0.158
  YS02001915           JUNCTION    537.03   902.35     0  01:17        2.88        4.52       0.032
  YS02001918           JUNCTION      0.00   441.45     0  01:17           0        1.66       0.009
  YS02001920           JUNCTION      2.87   440.76     0  01:17      0.0827        1.64       0.053
  YS02001923           JUNCTION      0.04   390.99     0  01:17     0.00109        1.54      -0.054
  YS02001926           JUNCTION      0.05   521.00     0  01:15      0.0015        1.53       0.006
  YS02001929           JUNCTION    276.52   277.99     0  01:16        1.51        1.52      -0.030
  YS02006553           JUNCTION      0.00   783.11     0  02:30           0        5.02       0.238
  YS02006556           JUNCTION      0.00   782.01     0  02:30           0        5.04       0.153
  YS02006558           JUNCTION    570.25  1149.00     0  01:28        3.03        8.03       0.045
  YS02006561           JUNCTION      0.00  1148.10     0  01:28           0        7.97      -0.002
  YS02163301           JUNCTION      0.00   911.72     0  01:14           0        2.92       0.047
  YS02163601           JUNCTION      0.11  1344.84     0  01:15     0.00317        5.89       0.080
  YS02164001           JUNCTION      0.00  1344.54     0  01:15           0        5.89       0.036
  YSB1154              JUNCTION    235.47   235.47     0  01:30        1.25        1.25       0.114
  YSB1171              JUNCTION      0.00   418.34     0  01:29           0        2.22       0.282
  YSB1174              JUNCTION    182.36   182.36     0  01:30       0.957       0.958       0.131
  YSB6556              JUNCTION      0.00   235.79     0  01:30           0        1.25       0.106
  CC-1                 OUTFALL       0.00   683.00     0  00:00           0        6.99       0.000
  CC-2                 OUTFALL       0.00   683.00     0  00:00           0        6.78       0.000
  JK-1                 OUTFALL       0.00  1000.00     0  00:00           0        5.32       0.000
  JK-2                 OUTFALL       0.00  1000.00     0  00:00           0      0.0484       0.000
  WSC                  OUTFALL       0.00  1481.84     0  01:24           0        17.8       0.000
  CC-storage           STORAGE       0.00  2982.87     0  01:18           0        19.6      -0.136
  JK-storage           STORAGE       0.00  1249.76     0  01:21           0        8.16      -0.112
  XR-storage           STORAGE     200.00   200.00     0  00:00        5.76        6.36       0.001
  
  
  **********************
  Node Surcharge Summary
  **********************
  
  Surcharging occurs when water rises above the top of the highest conduit.
  ---------------------------------------------------------------------
                                               Max. Height   Min. Depth
                                   Hours       Above Crown    Below Rim
  Node                 Type      Surcharged         Meters       Meters
  ---------------------------------------------------------------------
  HS02004478           JUNCTION        1.73          0.666        0.274
  HS02004479           JUNCTION        1.87          0.943        0.107
  HS02004480           JUNCTION        1.89          0.997        0.103
  HS02004770           JUNCTION        1.83          0.720        0.000
  HS02004777           JUNCTION        1.83          0.780        0.000
  HS02004785           JUNCTION        1.77          0.762        0.028
  HS02004788           JUNCTION        1.76          0.720        0.000
  HS02004792           JUNCTION        1.87          0.900        0.000
  HS02004799           JUNCTION        1.93          1.060        0.000
  HS02004802           JUNCTION        1.89          1.087        0.123
  HS02004807           JUNCTION        1.86          1.220        0.000
  HS02004817           JUNCTION        2.09          1.740        0.000
  HS02004824           JUNCTION        1.75          1.310        0.000
  HS02004830           JUNCTION        1.72          1.330        0.000
  HS02004837           JUNCTION        1.65          1.308        0.032
  HS02004842           JUNCTION        1.81          1.520        0.000
  HS02004848           JUNCTION        1.47          1.370        0.000
  HS02004852           JUNCTION        1.64          1.420        0.000
  HS02004856           JUNCTION        1.61          1.300        0.000
  HS02004862           JUNCTION        1.68          1.300        0.000
  HS02004870           JUNCTION        1.70          1.346        0.054
  HS02004876           JUNCTION        1.78          1.415        0.145
  HS02004881           JUNCTION        1.76          1.143        0.307
  HS02004901           JUNCTION        1.84          0.720        0.000
  WS02004401           JUNCTION        2.38          1.660        0.000
  WS02004402           JUNCTION        2.39          1.740        0.000
  WS02004403           JUNCTION        2.40          2.030        0.000
  WS02004404           JUNCTION        2.48          2.191        0.589
  WS02004405           JUNCTION        2.44          2.063        0.737
  WS02004406           JUNCTION        2.43          1.343        1.107
  WS02004409           JUNCTION        1.94          0.360        2.000
  WS02004410           JUNCTION        1.93          0.288        2.252
  WS02004411           JUNCTION        1.90          0.337        2.193
  WS02004412           JUNCTION        1.86          0.398        1.912
  WS02004413           JUNCTION        2.09          1.746        0.454
  WS02006109           JUNCTION        3.03          1.820        0.000
  WS02006110           JUNCTION        2.78          1.642        0.208
  WS02006111           JUNCTION        2.05          1.244        0.626
  WS02006112           JUNCTION        2.95          1.680        0.000
  WS02006113           JUNCTION        2.08          1.307        0.623
  WS02006115           JUNCTION        2.25          1.605        0.645
  WS02006116           JUNCTION        2.28          1.694        0.596
  WS02006228           JUNCTION        3.03          2.200        0.000
  WS02006229           JUNCTION        1.95          1.070        0.000
  WS02006230           JUNCTION        2.54          1.570        0.000
  WS02006231           JUNCTION        2.80          1.530        0.000
  WS02006232           JUNCTION        2.99          1.480        0.000
  WS02006234           JUNCTION        2.94          1.240        0.000
  WS02006235           JUNCTION        2.95          1.290        0.000
  WS02006238           JUNCTION        2.96          1.395        0.035
  WS02006239           JUNCTION        2.94          1.290        0.000
  WS02006240           JUNCTION        2.94          1.390        0.000
  WS02006242           JUNCTION        2.94          0.820        0.000
  WS02006243           JUNCTION        2.93          0.770        0.000
  WS02006245           JUNCTION        2.92          0.850        0.000
  WS02006247           JUNCTION        2.92          0.760        0.000
  WS02006248           JUNCTION        2.91          0.380        0.000
  WS02006249           JUNCTION        2.92          0.390        0.000
  WS02006251           JUNCTION        2.90          1.148        0.032
  WS02006252           JUNCTION        3.04          1.100        0.000
  WS02006253           JUNCTION        2.90          2.011        0.469
  WS02006256           JUNCTION        5.70          2.050        0.000
  WS02006280           JUNCTION        1.91          0.768        0.012
  WS02006284           JUNCTION        1.87          0.744        0.056
  WS02006287           JUNCTION        1.82          0.757        0.133
  YS02001580           JUNCTION        1.80          0.450        0.000
  YS02001583           JUNCTION        1.81          0.339        0.161
  YS02001586           JUNCTION        1.93          0.510        0.000
  YS02001590           JUNCTION        1.98          0.750        0.000
  YS02001593           JUNCTION        1.98          0.840        0.000
  YS02001596           JUNCTION        2.05          1.070        0.000
  YS02001600           JUNCTION        2.13          1.190        0.000
  YS02001601           JUNCTION        2.32          1.440        0.000
  YS02001602           JUNCTION        2.28          1.270        0.000
  YS02001605           JUNCTION        2.25          1.180        0.000
  YS02001607           JUNCTION        1.98          0.680        0.000
  YS02001610           JUNCTION        2.00          0.680        0.000
  YS02001613           JUNCTION        1.99          0.700        0.000
  YS02001616           JUNCTION        1.96          0.610        0.000
  YS02001619           JUNCTION        1.95          0.610        0.000
  YS02001622           JUNCTION        1.95          0.620        0.000
  YS02001625           JUNCTION        2.09          0.780        0.000
  YS02001629           JUNCTION        1.92          0.470        0.000
  YS02001633           JUNCTION        2.14          1.055        0.005
  YS02001641           JUNCTION        2.14          1.080        0.020
  YS02001644           JUNCTION        2.13          0.920        0.000
  YS02001647           JUNCTION        1.96          0.892        0.008
  YS02001649           JUNCTION        2.09          1.050        0.000
  YS02001652           JUNCTION        1.91          0.877        0.253
  YS02001655           JUNCTION        1.78          0.596        0.604
  YS02001658           JUNCTION        1.44          0.404        0.896
  YS02001748           JUNCTION        0.38          0.282        0.908
  YS02001751           JUNCTION        1.67          0.463        0.737
  YS02001754           JUNCTION        1.85          0.791        0.359
  YS02001757           JUNCTION        2.16          1.210        0.000
  YS02001759           JUNCTION        2.08          1.210        0.000
  YS02001762           JUNCTION        2.05          1.150        0.000
  YS02001765           JUNCTION        2.01          1.100        0.000
  YS02001767           JUNCTION        1.99          1.030        0.000
  YS02001770           JUNCTION        1.96          0.920        0.000
  YS02001774           JUNCTION        2.04          1.050        0.000
  YS02001779           JUNCTION        1.85          0.680        0.000
  YS02001783           JUNCTION        1.74          0.564        1.036
  YS02001784           JUNCTION        1.69          0.396        1.094
  YS02001786           JUNCTION        1.34          0.135        1.295
  YS02001882           JUNCTION        1.49          0.735        0.095
  YS02001884           JUNCTION        1.54          0.752        0.118
  YS02001887           JUNCTION        1.71          0.795        0.155
  YS02001890           JUNCTION        1.74          0.760        0.000
  YS02001895           JUNCTION        1.46          0.592        0.158
  YS02001898           JUNCTION        1.45          0.579        0.161
  YS02001901           JUNCTION        1.68          0.718        0.152
  YS02001904           JUNCTION        1.64          0.658        0.192
  YS02001907           JUNCTION        1.91          0.950        0.000
  YS02001910           JUNCTION        1.77          0.982        0.118
  YS02001915           JUNCTION        1.50          0.933        0.067
  YS02001918           JUNCTION        1.31          0.810        0.000
  YS02001920           JUNCTION        1.33          1.004        0.136
  YS02001923           JUNCTION        0.01          0.629        0.191
  YS02001926           JUNCTION        0.01          0.739        0.161
  YS02001929           JUNCTION        0.01          0.580        0.200
  YS02006553           JUNCTION        1.92          1.006        0.184
  YS02006556           JUNCTION        1.85          0.983        0.367
  YS02006558           JUNCTION        1.84          0.979        0.421
  YS02006561           JUNCTION        1.26          0.263        0.887
  YS02163301           JUNCTION        2.12          0.965        0.065
  YS02163601           JUNCTION        2.18          1.080        0.000
  YS02164001           JUNCTION        2.13          1.100        0.000
  YSB1154              JUNCTION        1.97          1.300        0.100
  YSB1171              JUNCTION        1.97          1.100        0.000
  YSB1174              JUNCTION        1.95          1.148        0.102
  YSB6556              JUNCTION        1.92          1.100        0.000
  
  
  *********************
  Node Flooding Summary
  *********************
  
  Flooding refers to all water that overflows a node, whether it ponds or not.
  --------------------------------------------------------------------------
                                                             Total   Maximum
                                 Maximum   Time of Max       Flood    Ponded
                        Hours       Rate    Occurrence      Volume     Depth
  Node                 Flooded       LPS   days hr:min    10^6 ltr    Meters
  --------------------------------------------------------------------------
  HS02004770              1.25    282.48      0  01:31       0.662     0.000
  HS02004777              0.01     11.54      0  01:11       0.000     0.000
  HS02004788              0.01    197.31      0  01:11       0.001     0.000
  HS02004792              1.27    662.31      0  01:32       1.927     0.000
  HS02004799              0.01     56.65      0  01:11       0.000     0.000
  HS02004807              0.01     19.34      0  01:15       0.000     0.000
  HS02004817              0.01      6.85      0  01:15       0.000     0.000
  HS02004824              0.01     11.20      0  01:15       0.000     0.000
  HS02004830              0.01     17.72      0  01:15       0.000     0.000
  HS02004842              0.01    100.31      0  01:15       0.001     0.000
  HS02004848              0.01    238.86      0  01:15       0.000     0.000
  HS02004852              0.01     15.57      0  01:15       0.000     0.000
  HS02004856              0.01     64.69      0  01:15       0.000     0.000
  HS02004862              0.01     33.27      0  01:15       0.000     0.000
  HS02004901              1.48    473.92      0  01:31       2.079     0.000
  WS02004401              0.01     97.21      0  01:11       0.000     0.000
  WS02004402              0.01    104.46      0  01:11       0.000     0.000
  WS02004403              0.01     73.63      0  01:11       0.000     0.000
  WS02006109              1.41    170.13      0  01:31       0.608     0.000
  WS02006112              0.01    132.03      0  01:11       0.001     0.000
  WS02006228              0.01      9.27      0  01:11       0.000     0.000
  WS02006229              0.01     24.58      0  01:11       0.000     0.000
  WS02006230              1.88    535.36      0  01:31       3.018     0.000
  WS02006231              0.01    124.78      0  01:09       0.000     0.000
  WS02006232              0.47    229.34      0  01:09       0.001     0.000
  WS02006234              1.92    129.12      0  02:25       0.856     0.000
  WS02006235              0.01    143.11      0  01:10       0.000     0.000
  WS02006239              0.01    324.81      0  01:10       0.001     0.000
  WS02006240              0.01    841.05      0  01:10       0.002     0.000
  WS02006242              1.95    808.85      0  01:10       0.956     0.000
  WS02006243              0.01    679.12      0  01:10       0.006     0.000
  WS02006245              0.01    256.22      0  01:11       0.001     0.000
  WS02006247              0.01    414.39      0  01:11       0.002     0.000
  WS02006248              2.03    452.55      0  01:11       2.415     0.000
  WS02006249              2.70   1262.83      0  01:31       8.883     0.000
  WS02006252              1.69    319.22      0  01:31       1.178     0.000
  WS02006256              2.50    295.45      0  01:14       1.661     0.000
  YS02001580              0.01    101.50      0  01:12       0.000     0.000
  YS02001586              1.59    160.95      0  01:33       0.592     0.000
  YS02001590              0.01     56.07      0  01:09       0.000     0.000
  YS02001593              0.01     37.44      0  01:09       0.000     0.000
  YS02001596              0.01      4.13      0  01:09       0.000     0.000
  YS02001600              0.01      3.26      0  01:09       0.000     0.000
  YS02001601              1.87    671.57      0  01:31       3.136     0.000
  YS02001602              1.83     62.20      0  02:05       0.398     0.000
  YS02001605              0.01      0.31      0  01:36       0.000     0.000
  YS02001607              0.01      0.69      0  02:05       0.000     0.000
  YS02001610              1.75    331.38      0  01:33       1.307     0.000
  YS02001613              0.01      0.83      0  01:13       0.000     0.000
  YS02001616              0.01     30.99      0  01:12       0.000     0.000
  YS02001619              0.01     64.61      0  01:12       0.000     0.000
  YS02001622              0.01      0.67      0  01:13       0.000     0.000
  YS02001625              1.78    872.45      0  02:06       3.720     0.000
  YS02001629              0.03    280.86      0  01:12       0.002     0.000
  YS02001644              0.11     59.18      0  02:05       0.004     0.000
  YS02001649              0.01      2.67      0  02:05       0.000     0.000
  YS02001757              0.01      2.10      0  01:42       0.000     0.000
  YS02001759              0.01      2.01      0  01:42       0.000     0.000
  YS02001762              0.01      3.67      0  01:42       0.000     0.000
  YS02001765              0.01      3.36      0  01:42       0.000     0.000
  YS02001767              0.01      2.74      0  01:42       0.000     0.000
  YS02001770              0.01      9.06      0  01:42       0.000     0.000
  YS02001774              0.01      4.43      0  01:42       0.000     0.000
  YS02001779              0.01     33.42      0  01:42       0.000     0.000
  YS02001890              0.01     34.89      0  01:15       0.000     0.000
  YS02001907              1.22    663.39      0  01:17       1.534     0.000
  YS02001918              0.01     23.47      0  01:16       0.000     0.000
  YS02163601              0.01      1.86      0  02:05       0.000     0.000
  YS02164001              0.01      2.32      0  02:05       0.000     0.000
  YSB1171                 0.57    174.12      0  01:31       0.137     0.000
  YSB6556                 0.01     14.91      0  01:11       0.000     0.000
  
  
  **********************
  Storage Volume Summary
  **********************
  
  --------------------------------------------------------------------------------------------------
                         Average     Avg  Evap Exfil       Maximum     Max    Time of Max    Maximum
                          Volume    Pcnt  Pcnt  Pcnt        Volume    Pcnt     Occurrence    Outflow
  Storage Unit           1000 m3    Full  Loss  Loss       1000 m3    Full    days hr:min        LPS
  --------------------------------------------------------------------------------------------------
  CC-storage               3.224      50     0     0         5.960      93       0  02:52    1783.53
  JK-storage               0.117      40     0     0         0.213      73       0  01:59    2300.00
  XR-storage               0.945      66     0     0         1.111      77       0  08:00     380.00
  
  
  ***********************
  Outfall Loading Summary
  ***********************
  
  -----------------------------------------------------------
                         Flow       Avg       Max       Total
                         Freq      Flow      Flow      Volume
  Outfall Node           Pcnt       LPS       LPS    10^6 ltr
  -----------------------------------------------------------
  CC-1                  51.22    683.00    683.00       6.994
  CC-2                  49.57    683.00    683.00       6.777
  JK-1                  25.66   1000.00   1000.00       5.319
  JK-2                   0.19   1000.00   1000.00       0.048
  WSC                   99.94    786.53   1481.84      17.825
  -----------------------------------------------------------
  System                45.32   4152.53   1481.84      36.963
  
  
  ********************
  Link Flow Summary
  ********************
  
  -----------------------------------------------------------------------------
                                 Maximum  Time of Max   Maximum    Max/    Max/
                                  |Flow|   Occurrence   |Veloc|    Full    Full
  Link                 Type          LPS  days hr:min     m/sec    Flow   Depth
  -----------------------------------------------------------------------------
  1                    CONDUIT   1481.84     0  01:24      3.68    0.52    0.51
  HS02004478WS02006287 CONDUIT   2230.19     0  01:31      2.93    0.62    1.00
  HS02004479HS02004480 CONDUIT    395.36     0  01:17      0.65    0.38    1.00
  HS02004480HS02004478 CONDUIT   2123.62     0  01:12      3.03    8.94    1.00
  HS02004770HS02004777 CONDUIT    744.75     0  01:11      1.06    1.36    1.00
  HS02004777HS02004785 CONDUIT    747.74     0  01:11      1.16    0.92    1.00
  HS02004785HS02004788 CONDUIT    702.49     0  01:11      1.37    5.30    1.00
  HS02004788HS02004792 CONDUIT    905.92     0  01:11      1.48    0.60    1.00
  HS02004792HS02004799 CONDUIT   1623.81     0  01:11      2.32    0.99    1.00
  HS02004799HS02004480 CONDUIT   1779.48     0  01:11      2.54    2.25    1.00
  HS02004802HS02004478 CONDUIT    618.31     0  01:32      0.88    0.55    1.00
  HS02004807HS02004802 CONDUIT    618.56     0  01:31      0.88    1.18    1.00
  HS02004817HS02004807 CONDUIT    457.63     0  01:12      0.65    0.27    1.00
  HS02004817HS02004824 CONDUIT    458.53     0  01:12      0.66    0.21    1.00
  HS02004824HS02004830 CONDUIT    667.16     0  01:12      1.03    0.87    1.00
  HS02004830HS02004837 CONDUIT    689.51     0  01:12      1.09    0.69    1.00
  HS02004837HS02004842 CONDUIT    837.65     0  01:12      1.20    0.50    1.00
  HS02004842HS02004848 CONDUIT    837.71     0  01:12      1.34    0.49    1.00
  HS02004848HS02004852 CONDUIT    996.41     0  01:13      1.64    1.12    1.00
  HS02004852HS02004856 CONDUIT    974.00     0  01:15      1.48    1.11    1.00
  HS02004856HS02004862 CONDUIT   1053.13     0  01:15      1.70    1.05    1.00
  HS02004862HS02004870 CONDUIT   1123.39     0  01:14      1.93    1.21    1.00
  HS02004870HS02004876 CONDUIT   1260.21     0  01:14      2.08    0.84    1.00
  HS02004876HS02004881 CONDUIT   1288.36     0  01:14      2.58   13.70    1.00
  HS02004881HS02006253 CONDUIT   1328.02     0  01:15      2.93    0.26    1.00
  HS02004901HS02004770 CONDUIT    265.79     0  02:15      0.38    1.00    1.00
  WS02001211WS02001212 CONDUIT    314.50     0  01:20      0.54    0.24    0.72
  WS02001212WS02001213 CONDUIT    343.67     0  01:20      1.04    0.53    0.61
  WS02001213WS02003059 CONDUIT    304.41     0  01:15      0.47    0.50    0.91
  WS02003059WS02003060 CONDUIT    419.23     0  01:14      0.75    0.27    0.82
  WS02003060WS02003069 CONDUIT   1494.32     0  01:22      2.31    0.59    0.60
  WS02003066WSF200     CONDUIT   1256.18     0  01:18      3.72    0.21    0.39
  WS02003067WS02003066 CONDUIT   1255.43     0  01:18      2.00    0.40    0.57
  WS02003069WS02003072 CONDUIT   1485.26     0  01:23      1.89    0.72    0.66
  WS02003072WS02003073 CONDUIT   1481.45     0  01:23      2.04    3.20    0.61
  WS02004138WS02004139 CONDUIT    190.63     0  00:29      2.18    0.04    0.43
  WS02004139WS02001211 CONDUIT    368.60     0  01:18      0.54    0.47    0.62
  WS02004401WS02004402 CONDUIT   1276.84     0  01:14      1.63    1.53    1.00
  WS02004402WS02004403 CONDUIT   1276.39     0  01:14      1.63    1.83    1.00
  WS02004403WS02004404 CONDUIT   1277.65     0  01:14      1.63    0.92    1.00
  WS02004404WS02004405 CONDUIT   1285.62     0  01:11      1.64   12.60    1.00
  WS02004405WS02004406 CONDUIT   1293.97     0  01:11      1.65    2.55    1.00
  WS02004406WS02004407 CONDUIT   1296.28     0  01:11      2.17    0.58    0.92
  WS02004407WS02004409 CONDUIT   1361.52     0  01:12      2.61    0.48    0.92
  WS02004409WS02004410 CONDUIT   1405.40     0  01:12      1.97    1.82    1.00
  WS02004410WS02004411 CONDUIT   1327.81     0  01:12      1.96    1.81    1.00
  WS02004411WS02004412 CONDUIT   1252.12     0  01:30      1.79    1.78    1.00
  WS02004412WS02004413 CONDUIT   1251.83     0  01:32      1.72    0.84    1.00
  WS02004413WS02003067 CONDUIT   1251.81     0  01:32      1.95    0.54    0.76
  WS02006109WS02006110 CONDUIT   1277.54     0  01:11      2.54    2.46    1.00
  WS02006110WS02006113 CONDUIT   1275.97     0  01:11      2.54    1.16    1.00
  WS02006111WS02006112 CONDUIT   1220.09     0  01:11      2.43    0.58    1.00
  WS02006112WS02006115 CONDUIT   1319.91     0  01:11      1.68    0.78    1.00
  WS02006113WS02006111 CONDUIT   1279.86     0  01:11      2.82    1.53    1.00
  WS02006115WS02006116 CONDUIT   1302.95     0  01:11      1.66    1.67    1.00
  WS02006116WS02004401 CONDUIT   1279.97     0  01:11      1.63    1.76    1.00
  WS02006228WS02006109 CONDUIT   1277.76     0  01:11      2.54    5.58    1.00
  WS02006229WS02006228 CONDUIT   1280.50     0  01:11      2.55    4.24    1.00
  WS02006230WS02006229 CONDUIT    977.98     0  01:31      2.54   21.76    1.00
  WS02006231WS02006230 CONDUIT    668.45     0  01:09      1.74   10.14    1.00
  WS02006232WS02006231 CONDUIT    658.48     0  01:09      1.71    1.38    1.00
  WS02006234WS02006232 CONDUIT    658.50     0  01:09      2.01    1.33    1.00
  WS02006235WS02006234 CONDUIT    678.93     0  01:09      1.77    7.16    1.00
  WS02006238WS02006235 CONDUIT    666.70     0  01:09      2.10    1.49    1.00
  WS02006239WS02006238 CONDUIT    699.37     0  01:10      2.19    2.24    1.00
  WS02006240WS02006239 CONDUIT    691.35     0  01:10      1.86    2.18    1.00
  WS02006242WS02006240 CONDUIT    534.26     0  01:10      1.39    2.12    1.00
  WS02006243WS02006242 CONDUIT    467.36     0  01:10      1.34    1.00    1.00
  WS02006245WS02006243 CONDUIT    419.32     0  03:53      1.39    1.24    1.00
  WS02006247WS02006245 CONDUIT    419.27     0  03:53      1.37    3.32    1.00
  WS02006248WS02006247 CONDUIT    444.28     0  01:11      1.38    0.97    1.00
  WS02006249WS02006248 CONDUIT    475.78     0  01:11      1.38    2.61    1.00
  WS02006251WS02006249 CONDUIT   1323.95     0  01:30      3.44    3.82    1.00
  WS02006252WS02006251 CONDUIT    406.63     0  03:05     24.89    1.49    1.00
  WS02006253WS02006251 CONDUIT   1347.15     0  01:15      3.50    4.04    1.00
  WS02006256WS02006235 CONDUIT    288.93     0  00:00      4.23    3.06    1.00
  WS02006280WS02006229 CONDUIT   2229.44     0  01:31      5.30    0.48    1.00
  WS02006284WS02006280 CONDUIT   2228.26     0  01:32      3.33    0.93    1.00
  WS02006287WS02006284 CONDUIT   2227.89     0  01:32      3.10    1.03    1.00
  WSF200WS02003060     CONDUIT   1423.47     0  01:14      3.22    0.32    0.50
  YS02001580YS02001583 CONDUIT    127.12     0  01:12      0.72    0.49    1.00
  YS02001583YS02001586 CONDUIT    154.44     0  01:11      0.69    0.23    1.00
  YS02001586YS02001590 CONDUIT    318.36     0  02:05      1.30    0.56    1.00
  YS02001590YS02001593 CONDUIT    318.43     0  02:05      1.13    2.00    1.00
  YS02001593YS02001596 CONDUIT    318.07     0  02:06      1.65    0.50    1.00
  YS02001596YS02001600 CONDUIT    318.04     0  01:23      1.22    0.62    1.00
  YS02001600YS02001601 CONDUIT    318.26     0  01:42      1.13    0.55    1.00
  YS02001601YS02001602 CONDUIT    588.81     0  01:12      2.08    2.13    1.00
  YS02001602YS02001605 CONDUIT    588.38     0  01:11      2.08   12.45    1.00
  YS02001605YS02001607 CONDUIT    588.55     0  01:11      2.08    3.23    1.00
  YS02001607YS02001610 CONDUIT    577.65     0  01:11      0.84    0.55    1.00
  YS02001610YS02001613 CONDUIT    557.58     0  01:12      0.79    0.64    1.00
  YS02001613YS02001616 CONDUIT    518.83     0  01:11      0.83    0.44    1.00
  YS02001616YS02001619 CONDUIT    502.74     0  01:12      0.88    0.87    1.00
  YS02001619YS02001622 CONDUIT    946.43     0  01:12      1.82    1.39    1.00
  YS02001622YS02001625 CONDUIT    950.34     0  01:12      1.21    0.51    1.00
  YS02001625YS02001629 CONDUIT    954.33     0  01:12      1.22    0.45    1.00
  YS02001629YS02163301 CONDUIT    911.72     0  01:14      1.16    1.12    1.00
  YS02001633YS02163601 CONDUIT   1344.73     0  01:15      1.71    1.41    1.00
  YS02001641YS02001644 CONDUIT   1345.81     0  01:15      1.71    4.35    1.00
  YS02001644YS02001647 CONDUIT   1740.07     0  01:15      2.26    1.02    1.00
  YS02001647YS02001649 CONDUIT   1762.18     0  01:15      2.34    0.93    1.00
  YS02001649YS02001757 CONDUIT   2027.51     0  01:14      2.60    1.23    1.00
  YS02001652YS02001649 CONDUIT    478.39     0  01:29      1.36    0.24    1.00
  YS02001655YS02001652 CONDUIT    479.95     0  01:29      1.85    0.23    1.00
  YS02001658YS02001655 CONDUIT    531.79     0  01:17      2.02    0.23    1.00
  YS02001661YS02001658 CONDUIT    659.69     0  01:23      2.26    0.26    0.94
  YS02001664YS02001661 CONDUIT    609.79     0  02:06      2.12    0.19    0.62
  YS02001745YS02001748 CONDUIT    601.22     0  01:28      2.11    0.23    0.84
  YS02001748YS02001751 CONDUIT    463.54     0  01:19      1.74    0.23    1.00
  YS02001751YS02001754 CONDUIT    320.46     0  01:28      1.70    0.15    1.00
  YS02001754YS02001757 CONDUIT    321.76     0  01:28      1.07    0.13    1.00
  YS02001757CaochengTiaoxuchi CONDUIT   2982.87     0  01:18      3.81    1.29    1.00
  YS02001759YS02001757 CONDUIT    981.82     0  01:30      1.34    0.70    1.00
  YS02001762YS02001759 CONDUIT    599.15     0  01:30      0.76    0.69    1.00
  YS02001765YS02001762 CONDUIT    595.23     0  01:30      0.85    0.56    1.00
  YS02001767YS02001765 CONDUIT    591.16     0  01:30      0.96    0.74    1.00
  YS02001770YS02001767 CONDUIT    587.34     0  01:30      0.96    2.33    1.00
  YS02001774YS02001770 CONDUIT    160.90     0  01:16      0.72    0.10    1.00
  YS02001779YS02001774 CONDUIT    162.86     0  01:16      0.22    0.08    1.00
  YS02001783YS02001784 CONDUIT   1148.03     0  01:28      2.28    1.58    1.00
  YS02001784YS02001785 CONDUIT   1148.64     0  01:28      2.29    2.67    1.00
  YS02001786YS02001788 CONDUIT   1148.82     0  01:28      2.46    2.21    0.89
  YS02001788YS02001790 CONDUIT   1162.08     0  01:27      2.70    0.86    0.84
  YS02001790YS02001791 CONDUIT   1279.39     0  01:36      3.42    1.39    0.70
  YS02001791YS02001793 CONDUIT   1243.91     0  01:39      6.79    0.53    0.45
  YS02001793JiankangQianchi CONDUIT   1249.76     0  01:21      2.51    0.10    0.65
  YS02001882YS02001884 CONDUIT     79.42     0  01:10      0.42    0.09    1.00
  YS02001884YS02001887 CONDUIT    146.78     0  01:10      0.37    0.20    1.00
  YS02001887YS02001890 CONDUIT    391.41     0  01:29      0.50    0.67    1.00
  YS02001890YS02001895 CONDUIT    395.48     0  01:14      0.50    0.18    1.00
  YS02001895YS02001898 CONDUIT    401.53     0  01:14      0.71    0.70    1.00
  YS02001898YS02001901 CONDUIT    410.75     0  01:14      0.60    0.26    1.00
  YS02001901YS02001904 CONDUIT    412.21     0  01:14      0.65    0.64    1.00
  YS02001904YS02001907 CONDUIT    412.10     0  01:14      0.52    0.14    1.00
  YS02001907YS02006553 CONDUIT    783.11     0  02:30      0.87    0.92    1.00
  YS02001910YS02001907 CONDUIT    903.00     0  01:17      1.15    0.51    1.00
  YS02001915YS02001910 CONDUIT    903.32     0  01:17      1.15    0.45    1.00
  YS02001918YS02001915 CONDUIT    443.33     0  01:17      0.56    0.24    1.00
  YS02001920YS02001918 CONDUIT    441.45     0  01:17      0.72    0.43    1.00
  YS02001923YS02001920 CONDUIT    437.89     0  01:17      0.83    0.20    1.00
  YS02001926YS02001923 CONDUIT    390.95     0  01:17      0.94    0.56    1.00
  YS02001929YS02001926 CONDUIT    385.05     0  01:17      1.07    0.18    1.00
  YS02006553YS02006556 CONDUIT    782.01     0  02:30      1.00    0.67    1.00
  YS02006556YS02006558 CONDUIT    783.58     0  02:30      1.00    0.62    1.00
  YS02006558YS02006561 CONDUIT   1148.10     0  01:28      4.06    2.54    1.00
  YS02006561YS02001783 CONDUIT   1147.69     0  01:21      2.28    0.59    1.00
  YS02163301YS02001633 CONDUIT    912.11     0  01:14      1.16    0.86    1.00
  YS02163601YS02164001 CONDUIT   1344.54     0  01:15      1.71    1.19    1.00
  YS02164001YS02001641 CONDUIT   1344.89     0  01:15      1.71    1.84    1.00
  YSB1154YSB6556       CONDUIT    235.79     0  01:30      0.61    0.42    1.00
  YSB1171HS02004479    CONDUIT    395.62     0  01:17      0.79    0.26    1.00
  YSB1174YSB1171       CONDUIT    182.80     0  01:29      0.48    0.28    1.00
  YSB6556YSB1171       CONDUIT    236.08     0  01:30      0.61    0.24    1.00
  CC-R1                PUMP       683.00     0  00:00              1.00
  CC-R2                PUMP       683.00     0  00:00              1.00
  CC-S1                PUMP       200.00     0  00:00              1.00
  CC-S2                PUMP       200.00     0  00:00              1.00
  JK-R1                PUMP      1000.00     0  00:00              1.00
  JK-R2                PUMP      1000.00     0  00:00              1.00
  JK-S                 PUMP       300.00     0  00:00              1.00
  XR-1                 PUMP        95.00     0  00:00              1.00
  XR-2                 PUMP        95.00     0  00:00              1.00
  XR-3                 PUMP        95.00     0  00:00              1.00
  XR-4                 PUMP        95.00     0  00:00              1.00
  
  
  ***************************
  Flow Classification Summary
  ***************************
  
  -------------------------------------------------------------------------------------
                      Adjusted    ---------- Fraction of Time in Flow Class ---------- 
                       /Actual         Up    Down  Sub   Sup   Up    Down  Norm  Inlet 
  Conduit               Length    Dry  Dry   Dry   Crit  Crit  Crit  Crit  Ltd   Ctrl  
  -------------------------------------------------------------------------------------
  1                       1.00   0.00  0.00  0.00  0.00  1.00  0.00  0.00  0.49  0.00
  HS02004478WS02006287    1.00   0.09  0.00  0.00  0.75  0.16  0.00  0.00  0.55  0.00
  HS02004479HS02004480    1.00   0.04  0.00  0.00  0.96  0.00  0.00  0.00  0.09  0.00
  HS02004480HS02004478    1.00   0.09  0.00  0.00  0.71  0.00  0.00  0.20  0.00  0.00
  HS02004770HS02004777    1.00   0.00  0.09  0.00  0.91  0.00  0.00  0.00  0.00  0.00
  HS02004777HS02004785    1.00   0.00  0.00  0.00  1.00  0.00  0.00  0.00  0.09  0.00
  HS02004785HS02004788    1.00   0.00  0.00  0.00  1.00  0.00  0.00  0.00  0.00  0.00
  HS02004788HS02004792    1.00   0.00  0.00  0.00  0.99  0.01  0.00  0.00  0.74  0.00
  HS02004792HS02004799    1.00   0.00  0.00  0.00  0.99  0.01  0.00  0.00  0.73  0.00
  HS02004799HS02004480    1.00   0.00  0.04  0.00  0.91  0.00  0.05  0.00  0.00  0.00
  HS02004802HS02004478    1.00   0.09  0.00  0.00  0.91  0.00  0.00  0.00  0.01  0.00
  HS02004807HS02004802    1.00   0.09  0.00  0.00  0.91  0.00  0.00  0.00  0.00  0.00
  HS02004817HS02004807    1.00   0.00  0.09  0.00  0.91  0.00  0.00  0.00  0.01  0.00
  HS02004817HS02004824    1.00   0.00  0.00  0.00  1.00  0.00  0.00  0.00  0.73  0.00
  HS02004824HS02004830    1.00   0.00  0.00  0.00  1.00  0.00  0.00  0.00  0.00  0.00
  HS02004830HS02004837    1.00   0.00  0.00  0.00  1.00  0.00  0.00  0.00  0.73  0.00
  HS02004837HS02004842    1.00   0.00  0.00  0.00  1.00  0.00  0.00  0.00  0.11  0.00
  HS02004842HS02004848    1.00   0.00  0.09  0.00  0.91  0.00  0.00  0.00  0.50  0.00
  HS02004848HS02004852    1.00   0.09  0.00  0.00  0.91  0.00  0.00  0.00  0.61  0.00
  HS02004852HS02004856    1.00   0.09  0.00  0.00  0.91  0.00  0.00  0.00  0.60  0.00
  HS02004856HS02004862    1.00   0.00  0.09  0.00  0.91  0.00  0.00  0.00  0.62  0.00
  HS02004862HS02004870    1.00   0.00  0.00  0.00  1.00  0.00  0.00  0.00  0.01  0.00
  HS02004870HS02004876    1.00   0.00  0.00  0.00  0.99  0.01  0.00  0.00  0.71  0.00
  HS02004876HS02004881    1.00   0.02  0.00  0.00  0.87  0.11  0.00  0.00  0.00  0.00
  HS02004881HS02006253    1.00   0.03  0.02  0.00  0.54  0.02  0.00  0.39  0.14  0.00
  HS02004901HS02004770    1.00   0.09  0.00  0.00  0.91  0.00  0.00  0.00  0.00  0.00
  WS02001211WS02001212    1.00   0.00  0.03  0.00  0.97  0.00  0.00  0.00  0.00  0.00
  WS02001212WS02001213    1.00   0.03  0.00  0.00  0.57  0.00  0.40  0.00  0.00  0.00
  WS02001213WS02003059    1.00   0.00  0.00  0.00  0.99  0.00  0.00  0.00  0.00  0.00
  WS02003059WS02003060    1.00   0.00  0.00  0.00  1.00  0.00  0.00  0.00  0.03  0.00
  WS02003060WS02003069    1.00   0.00  0.00  0.00  0.98  0.02  0.00  0.00  0.50  0.00
  WS02003066WSF200        1.00   0.06  0.00  0.00  0.00  0.94  0.00  0.00  0.56  0.00
  WS02003067WS02003066    1.00   0.05  0.00  0.00  0.94  0.00  0.00  0.00  0.00  0.00
  WS02003069WS02003072    1.00   0.00  0.00  0.00  1.00  0.00  0.00  0.00  0.57  0.00
  WS02003072WS02003073    1.00   0.00  0.00  0.00  0.00  0.00  0.00  1.00  0.00  0.00
  WS02004138WS02004139    1.00   0.00  0.01  0.00  0.97  0.01  0.00  0.02  0.98  0.00
  WS02004139WS02001211    1.00   0.00  0.00  0.00  0.99  0.00  0.00  0.00  0.00  0.00
  WS02004401WS02004402    1.00   0.03  0.00  0.00  0.97  0.00  0.00  0.00  0.00  0.00
  WS02004402WS02004403    1.00   0.03  0.00  0.00  0.97  0.00  0.00  0.00  0.00  0.00
  WS02004403WS02004404    1.00   0.00  0.03  0.00  0.97  0.00  0.00  0.00  0.00  0.00
  WS02004404WS02004405    1.00   0.00  0.00  0.00  1.00  0.00  0.00  0.00  0.01  0.00
  WS02004405WS02004406    1.00   0.00  0.00  0.00  1.00  0.00  0.00  0.00  0.00  0.00
  WS02004406WS02004407    1.00   0.00  0.04  0.00  0.96  0.00  0.00  0.00  0.00  0.00
  WS02004407WS02004409    1.00   0.04  0.00  0.00  0.95  0.01  0.00  0.00  0.71  0.00
  WS02004409WS02004410    1.00   0.04  0.00  0.00  0.96  0.00  0.00  0.00  0.00  0.00
  WS02004410WS02004411    1.00   0.04  0.00  0.00  0.96  0.00  0.00  0.00  0.00  0.00
  WS02004411WS02004412    1.00   0.04  0.00  0.00  0.96  0.00  0.00  0.00  0.00  0.00
  WS02004412WS02004413    1.00   0.04  0.00  0.00  0.95  0.00  0.00  0.00  0.00  0.00
  WS02004413WS02003067    1.00   0.05  0.01  0.00  0.00  0.00  0.95  0.00  0.00  0.00
  WS02006109WS02006110    1.00   0.00  0.01  0.00  0.98  0.00  0.01  0.00  0.00  0.00
  WS02006110WS02006113    1.00   0.01  0.01  0.00  0.98  0.00  0.00  0.00  0.00  0.00
  WS02006111WS02006112    1.00   0.02  0.00  0.00  0.97  0.00  0.00  0.00  0.67  0.00
  WS02006112WS02006115    1.00   0.02  0.00  0.00  0.97  0.00  0.00  0.00  0.00  0.00
  WS02006113WS02006111    1.00   0.02  0.00  0.00  0.42  0.56  0.00  0.00  0.08  0.00
  WS02006115WS02006116    1.00   0.03  0.00  0.00  0.97  0.00  0.00  0.01  0.00  0.00
  WS02006116WS02004401    1.00   0.03  0.00  0.00  0.97  0.00  0.00  0.00  0.00  0.00
  WS02006228WS02006109    1.00   0.00  0.00  0.00  1.00  0.00  0.00  0.00  0.00  0.00
  WS02006229WS02006228    1.00   0.00  0.00  0.00  0.99  0.00  0.00  0.01  0.00  0.00
  WS02006230WS02006229    1.00   0.00  0.00  0.00  0.98  0.00  0.00  0.02  0.01  0.00
  WS02006231WS02006230    1.00   0.00  0.00  0.00  0.57  0.00  0.43  0.00  0.00  0.00
  WS02006232WS02006231    1.00   0.00  0.00  0.00  0.99  0.00  0.00  0.00  0.00  0.00
  WS02006234WS02006232    1.00   0.00  0.00  0.00  1.00  0.00  0.00  0.00  0.19  0.00
  WS02006235WS02006234    1.00   0.00  0.00  0.00  0.80  0.00  0.19  0.00  0.00  0.00
  WS02006238WS02006235    1.00   0.00  0.00  0.00  1.00  0.00  0.00  0.00  0.00  0.00
  WS02006239WS02006238    1.00   0.00  0.00  0.00  1.00  0.00  0.00  0.00  0.34  0.00
  WS02006240WS02006239    1.00   0.00  0.00  0.00  0.69  0.00  0.00  0.30  0.01  0.00
  WS02006242WS02006240    1.00   0.00  0.00  0.00  0.99  0.00  0.01  0.00  0.00  0.00
  WS02006243WS02006242    1.00   0.00  0.00  0.00  0.99  0.00  0.00  0.01  0.55  0.00
  WS02006245WS02006243    1.00   0.00  0.00  0.00  0.91  0.00  0.00  0.09  0.00  0.00
  WS02006247WS02006245    1.00   0.00  0.00  0.00  0.99  0.00  0.00  0.01  0.00  0.00
  WS02006248WS02006247    1.00   0.00  0.00  0.00  0.99  0.00  0.00  0.01  0.53  0.00
  WS02006249WS02006248    1.00   0.00  0.00  0.00  0.62  0.00  0.38  0.00  0.00  0.00
  WS02006251WS02006249    1.00   0.00  0.00  0.00  1.00  0.00  0.00  0.00  0.57  0.00
  WS02006252WS02006251    1.00   0.00  0.25  0.00  0.53  0.00  0.22  0.00  0.00  0.00
  WS02006253WS02006251    1.00   0.00  0.00  0.00  0.98  0.00  0.02  0.00  0.00  0.00
  WS02006256WS02006235    1.00   0.00  0.00  0.00  1.00  0.00  0.00  0.00  0.00  0.00
  WS02006280WS02006229    1.00   0.09  0.00  0.00  0.37  0.04  0.00  0.49  0.01  0.00
  WS02006284WS02006280    1.00   0.09  0.00  0.00  0.35  0.00  0.00  0.56  0.00  0.00
  WS02006287WS02006284    1.00   0.08  0.01  0.00  0.65  0.25  0.00  0.01  0.61  0.00
  WSF200WS02003060        1.00   0.00  0.06  0.00  0.39  0.55  0.00  0.00  0.54  0.00
  YS02001580YS02001583    1.00   0.11  0.39  0.00  0.50  0.00  0.00  0.00  0.60  0.00
  YS02001583YS02001586    1.00   0.24  0.19  0.00  0.57  0.00  0.00  0.00  0.61  0.00
  YS02001586YS02001590    1.00   0.09  0.00  0.00  0.66  0.02  0.00  0.23  0.26  0.00
  YS02001590YS02001593    1.00   0.09  0.00  0.00  0.37  0.00  0.54  0.00  0.00  0.00
  YS02001593YS02001596    1.00   0.09  0.00  0.00  0.39  0.01  0.00  0.51  0.01  0.00
  YS02001596YS02001600    1.00   0.09  0.00  0.00  0.44  0.01  0.00  0.46  0.02  0.00
  YS02001600YS02001601    1.00   0.09  0.00  0.00  0.91  0.00  0.00  0.00  0.54  0.00
  YS02001601YS02001602    1.00   0.09  0.00  0.00  0.91  0.00  0.00  0.00  0.00  0.00
  YS02001602YS02001605    1.00   0.09  0.00  0.00  0.91  0.00  0.00  0.00  0.00  0.00
  YS02001605YS02001607    1.00   0.09  0.00  0.00  0.91  0.00  0.00  0.00  0.00  0.00
  YS02001607YS02001610    1.00   0.09  0.00  0.00  0.91  0.00  0.00  0.00  0.00  0.00
  YS02001610YS02001613    1.00   0.09  0.00  0.00  0.91  0.00  0.00  0.00  0.00  0.00
  YS02001613YS02001616    1.00   0.09  0.00  0.00  0.91  0.00  0.00  0.00  0.00  0.00
  YS02001616YS02001619    1.00   0.09  0.00  0.00  0.91  0.00  0.00  0.00  0.00  0.00
  YS02001619YS02001622    1.00   0.09  0.00  0.00  0.91  0.01  0.00  0.00  0.26  0.00
  YS02001622YS02001625    1.00   0.09  0.00  0.00  0.91  0.00  0.00  0.00  0.01  0.00
  YS02001625YS02001629    1.00   0.09  0.01  0.00  0.44  0.00  0.47  0.00  0.00  0.00
  YS02001629YS02163301    1.00   0.09  0.00  0.00  0.91  0.00  0.00  0.00  0.00  0.00
  YS02001633YS02163601    1.00   0.00  0.01  0.00  0.99  0.00  0.00  0.00  0.12  0.00
  YS02001641YS02001644    1.00   0.00  0.00  0.00  0.99  0.00  0.00  0.00  0.00  0.00
  YS02001644YS02001647    1.00   0.00  0.09  0.00  0.91  0.00  0.00  0.00  0.00  0.00
  YS02001647YS02001649    1.00   0.00  0.09  0.00  0.71  0.20  0.00  0.00  0.54  0.00
  YS02001649YS02001757    1.00   0.00  0.00  0.00  0.79  0.21  0.00  0.00  0.34  0.00
  YS02001652YS02001649    1.00   0.00  0.00  0.00  0.99  0.01  0.00  0.00  0.65  0.00
  YS02001655YS02001652    1.00   0.00  0.00  0.00  0.48  0.00  0.00  0.52  0.02  0.00
  YS02001658YS02001655    1.00   0.00  0.09  0.00  0.83  0.09  0.00  0.00  0.57  0.00
  YS02001661YS02001658    1.00   0.09  0.00  0.00  0.65  0.26  0.00  0.00  0.60  0.00
  YS02001664YS02001661    1.00   0.09  0.00  0.00  0.86  0.05  0.00  0.00  0.78  0.00
  YS02001745YS02001748    1.00   0.00  0.00  0.00  0.39  0.00  0.00  0.60  0.04  0.00
  YS02001748YS02001751    1.00   0.00  0.00  0.00  0.94  0.06  0.00  0.00  0.69  0.00
  YS02001751YS02001754    1.00   0.00  0.00  0.00  0.48  0.00  0.00  0.52  0.02  0.00
  YS02001754YS02001757    1.00   0.00  0.00  0.00  1.00  0.00  0.00  0.00  0.67  0.00
  YS02001757CaochengTiaoxuchi    1.00   0.00  0.00  0.00  0.97  0.03  0.00  0.00  0.65  0.00
  YS02001759YS02001757    1.00   0.00  0.00  0.00  1.00  0.00  0.00  0.00  0.58  0.00
  YS02001762YS02001759    1.00   0.00  0.00  0.00  1.00  0.00  0.00  0.00  0.01  0.00
  YS02001765YS02001762    1.00   0.00  0.00  0.00  1.00  0.00  0.00  0.00  0.63  0.00
  YS02001767YS02001765    1.00   0.00  0.00  0.00  1.00  0.00  0.00  0.00  0.00  0.00
  YS02001770YS02001767    1.00   0.00  0.00  0.00  1.00  0.00  0.00  0.00  0.00  0.00
  YS02001774YS02001770    1.00   0.00  0.08  0.00  0.82  0.00  0.09  0.00  0.00  0.00
  YS02001779YS02001774    1.00   0.00  0.00  0.00  1.00  0.00  0.00  0.00  0.66  0.00
  YS02001783YS02001784    1.00   0.00  0.09  0.00  0.91  0.00  0.00  0.00  0.53  0.00
  YS02001784YS02001785    1.00   0.00  0.00  0.00  1.00  0.00  0.00  0.00  0.12  0.00
  YS02001786YS02001788    1.00   0.00  0.00  0.00  0.78  0.22  0.00  0.00  0.00  0.00
  YS02001788YS02001790    1.00   0.00  0.00  0.00  0.24  0.76  0.00  0.00  0.73  0.00
  YS02001790YS02001791    1.00   0.00  0.00  0.00  0.01  0.99  0.00  0.00  0.11  0.00
  YS02001791YS02001793    1.00   0.00  0.00  0.00  0.00  1.00  0.00  0.00  0.03  0.00
  YS02001793JiankangQianchi    1.00   0.00  0.00  0.00  0.83  0.17  0.00  0.00  0.93  0.00
  YS02001882YS02001884    1.00   0.09  0.00  0.00  0.91  0.00  0.00  0.00  0.00  0.00
  YS02001884YS02001887    1.00   0.06  0.03  0.00  0.92  0.00  0.00  0.00  0.00  0.00
  YS02001887YS02001890    1.00   0.00  0.00  0.00  0.96  0.00  0.03  0.00  0.00  0.00
  YS02001890YS02001895    1.00   0.00  0.09  0.00  0.91  0.00  0.00  0.00  0.00  0.00
  YS02001895YS02001898    1.00   0.09  0.00  0.00  0.90  0.00  0.01  0.00  0.00  0.00
  YS02001898YS02001901    1.00   0.09  0.00  0.00  0.91  0.00  0.00  0.00  0.00  0.00
  YS02001901YS02001904    1.00   0.09  0.00  0.00  0.91  0.00  0.00  0.00  0.00  0.00
  YS02001904YS02001907    1.00   0.00  0.09  0.00  0.91  0.00  0.00  0.00  0.00  0.00
  YS02001907YS02006553    1.00   0.00  0.02  0.00  0.97  0.00  0.00  0.00  0.00  0.00
  YS02001910YS02001907    1.00   0.00  0.00  0.00  0.97  0.00  0.00  0.03  0.10  0.00
  YS02001915YS02001910    1.00   0.00  0.00  0.00  0.98  0.02  0.00  0.00  0.11  0.00
  YS02001918YS02001915    1.00   0.00  0.00  0.00  0.97  0.02  0.00  0.00  0.63  0.00
  YS02001920YS02001918    1.00   0.00  0.00  0.00  1.00  0.00  0.00  0.00  0.00  0.00
  YS02001923YS02001920    1.00   0.00  0.00  0.00  1.00  0.00  0.00  0.00  0.77  0.00
  YS02001926YS02001923    1.00   0.00  0.06  0.00  0.27  0.00  0.67  0.00  0.00  0.00
  YS02001929YS02001926    1.00   0.00  0.09  0.00  0.91  0.00  0.00  0.00  0.70  0.00
  YS02006553YS02006556    1.00   0.01  0.00  0.00  0.99  0.00  0.00  0.00  0.03  0.00
  YS02006556YS02006558    1.00   0.00  0.00  0.00  1.00  0.00  0.00  0.00  0.00  0.00
  YS02006558YS02006561    1.00   0.09  0.00  0.00  0.25  0.66  0.00  0.00  0.13  0.00
  YS02006561YS02001783    1.00   0.09  0.00  0.00  0.33  0.57  0.00  0.00  0.61  0.00
  YS02163301YS02001633    1.00   0.00  0.09  0.00  0.91  0.00  0.00  0.00  0.00  0.00
  YS02163601YS02164001    1.00   0.00  0.07  0.00  0.93  0.00  0.00  0.00  0.00  0.00
  YS02164001YS02001641    1.00   0.01  0.06  0.00  0.93  0.00  0.00  0.00  0.05  0.00
  YSB1154YSB6556          1.00   0.09  0.00  0.00  0.91  0.00  0.00  0.00  0.01  0.00
  YSB1171HS02004479       1.00   0.04  0.00  0.00  0.95  0.00  0.00  0.01  0.08  0.00
  YSB1174YSB1171          1.00   0.05  0.02  0.00  0.93  0.00  0.00  0.00  0.00  0.00
  YSB6556YSB1171          1.00   0.04  0.04  0.00  0.91  0.00  0.00  0.00  0.00  0.00
  
  
  *************************
  Conduit Surcharge Summary
  *************************
  
  ----------------------------------------------------------------------------
                                                           Hours        Hours 
                         --------- Hours Full --------   Above Full   Capacity
  Conduit                Both Ends  Upstream  Dnstream   Normal Flow   Limited
  ----------------------------------------------------------------------------
  HS02004478WS02006287        1.73      1.73      1.86      0.01         0.01
  HS02004479HS02004480        1.90      1.90      1.91      0.01         0.01
  HS02004480HS02004478        1.82      1.89      1.82      2.27         1.82
  HS02004770HS02004777        1.82      1.83      1.83      0.43         0.33
  HS02004777HS02004785        1.77      1.77      1.83      0.01         0.01
  HS02004785HS02004788        1.76      1.77      1.76      2.13         1.73
  HS02004788HS02004792        1.76      1.76      1.87      0.01         0.01
  HS02004792HS02004799        1.87      1.87      1.93      0.01         0.01
  HS02004799HS02004480        1.89      1.89      1.93      1.96         0.01
  HS02004802HS02004478        1.83      1.83      1.89      0.01         0.01
  HS02004807HS02004802        1.86      1.86      1.89      0.24         0.36
  HS02004817HS02004807        1.86      1.86      2.09      0.01         0.01
  HS02004817HS02004824        1.75      1.75      2.09      0.01         0.01
  HS02004824HS02004830        1.72      1.72      1.75      0.01         0.01
  HS02004830HS02004837        1.65      1.65      1.72      0.01         0.01
  HS02004837HS02004842        1.65      1.65      1.81      0.01         0.01
  HS02004842HS02004848        1.47      1.47      1.81      0.01         0.01
  HS02004848HS02004852        1.47      1.47      1.64      0.04         0.01
  HS02004852HS02004856        1.64      1.64      1.67      0.03         0.01
  HS02004856HS02004862        1.61      1.61      1.68      0.01         0.01
  HS02004862HS02004870        1.68      1.68      1.70      0.03         0.09
  HS02004870HS02004876        1.70      1.70      1.78      0.01         0.01
  HS02004876HS02004881        1.76      1.78      1.76      2.19         1.76
  HS02004881HS02006253        1.76      1.76      2.90      0.01         0.01
  HS02004901HS02004770        1.83      1.83      1.84      0.74         0.01
  WS02003072WS02003073        0.01      0.01      0.01      3.19         0.01
  WS02004401WS02004402        2.38      2.38      2.39      2.18         2.14
  WS02004402WS02004403        2.39      2.39      2.40      2.40         2.37
  WS02004403WS02004404        2.40      2.40      2.48      0.01         0.02
  WS02004404WS02004405        2.44      2.48      2.44      3.65         2.44
  WS02004405WS02004406        2.43      2.44      2.43      2.87         2.43
  WS02004406WS02004407        0.01      0.01      2.43      0.01         0.01
  WS02004407WS02004409        0.01      0.01      1.94      0.01         0.01
  WS02004409WS02004410        1.93      1.94      1.93      2.24         1.92
  WS02004410WS02004411        1.90      1.93      1.90      2.32         1.90
  WS02004411WS02004412        1.86      1.90      1.86      2.37         1.86
  WS02004412WS02004413        1.86      1.86      2.09      0.01         0.01
  WS02004413WS02003067        0.01      0.01      2.09      0.01         0.01
  WS02006109WS02006110        2.78      2.78      3.04      2.79         0.01
  WS02006110WS02006113        2.08      2.08      3.03      0.98         0.01
  WS02006111WS02006112        2.05      2.05      3.12      0.01         0.01
  WS02006112WS02006115        2.25      2.25      2.95      0.01         0.01
  WS02006113WS02006111        2.06      2.08      2.06      2.16         2.06
  WS02006115WS02006116        2.27      2.27      2.28      2.26         2.22
  WS02006116WS02004401        2.38      2.38      2.38      2.35         2.32
  WS02006228WS02006109        3.03      3.04      3.03      3.24         3.03
  WS02006229WS02006228        3.03      3.03      3.03      3.11         3.02
  WS02006230WS02006229        3.05      3.06      3.05      3.93         1.06
  WS02006231WS02006230        2.53      2.54      2.84      3.66         1.97
  WS02006232WS02006231        2.80      2.80      2.99      0.03         0.41
  WS02006234WS02006232        2.95      2.95      2.99      0.03         0.01
  WS02006235WS02006234        2.93      2.94      2.95      3.46         1.95
  WS02006238WS02006235        2.95      2.96      2.96      0.02         0.91
  WS02006239WS02006238        2.95      2.96      2.96      2.60         0.57
  WS02006240WS02006239        2.94      2.94      2.94      2.59         0.56
  WS02006242WS02006240        2.94      2.94      2.95      2.77         1.94
  WS02006243WS02006242        2.93      2.93      2.95      0.01         0.01
  WS02006245WS02006243        2.93      2.93      2.93      0.65         0.54
  WS02006247WS02006245        2.92      2.93      2.92      3.05         0.92
  WS02006248WS02006247        2.92      2.92      2.92      0.01         0.01
  WS02006249WS02006248        2.91      2.91      2.92      1.00         0.01
  WS02006251WS02006249        2.92      2.92      2.92      3.04         2.90
  WS02006252WS02006251        3.03      3.03      3.04      1.71         0.01
  WS02006253WS02006251        2.91      2.91      2.93      1.96         0.01
  WS02006256WS02006235        3.56      3.57      5.69      0.65         0.01
  WS02006280WS02006229        1.91      1.91      1.95      0.01         0.01
  WS02006284WS02006280        1.87      1.87      1.91      0.01         0.01
  WS02006287WS02006284        1.82      1.82      1.88      0.92         0.90
  YS02001580YS02001583        1.80      1.80      1.84      0.01         0.01
  YS02001583YS02001586        1.81      1.81      1.93      0.01         0.01
  YS02001586YS02001590        1.93      1.93      1.98      0.01         0.01
  YS02001590YS02001593        1.98      1.98      1.99      1.99         0.01
  YS02001593YS02001596        1.99      1.99      2.05      0.01         0.01
  YS02001596YS02001600        2.08      2.08      2.13      0.01         0.01
  YS02001600YS02001601        2.17      2.17      2.32      0.01         0.01
  YS02001601YS02001602        2.28      2.28      2.34      2.10         0.01
  YS02001602YS02001605        2.25      2.25      2.28      2.79         0.01
  YS02001605YS02001607        2.24      2.25      2.26      2.20         2.16
  YS02001607YS02001610        1.98      1.98      2.00      0.01         0.01
  YS02001610YS02001613        1.99      1.99      2.00      0.01         0.01
  YS02001613YS02001616        1.96      1.96      1.99      0.01         0.01
  YS02001616YS02001619        1.95      1.95      1.96      0.01         0.02
  YS02001619YS02001622        1.95      1.95      1.95      1.90         1.68
  YS02001622YS02001625        1.95      1.95      2.09      0.01         0.01
  YS02001625YS02001629        1.92      1.92      2.09      0.01         0.01
  YS02001629YS02163301        2.10      2.10      2.12      0.06         0.06
  YS02001633YS02163601        2.14      2.14      2.18      0.14         0.15
  YS02001641YS02001644        2.13      2.14      2.13      2.39         2.03
  YS02001644YS02001647        1.96      1.96      2.13      0.03         0.01
  YS02001647YS02001649        1.96      1.96      2.09      0.01         0.01
  YS02001649YS02001757        2.08      2.09      2.16      0.22         0.16
  YS02001652YS02001649        1.93      1.93      2.09      0.01         0.01
  YS02001655YS02001652        1.78      1.78      1.91      0.01         0.01
  YS02001658YS02001655        1.44      1.44      1.78      0.01         0.01
  YS02001661YS02001658        0.01      0.01      1.44      0.01         0.01
  YS02001745YS02001748        0.01      0.01      0.38      0.01         0.01
  YS02001748YS02001751        1.22      1.22      1.67      0.01         0.01
  YS02001751YS02001754        1.67      1.67      1.85      0.01         0.01
  YS02001754YS02001757        1.89      1.89      2.16      0.01         0.01
  YS02001757CaochengTiaoxuchi        2.10      2.16      2.53      0.76         0.66
  YS02001759YS02001757        2.08      2.08      2.16      0.01         0.01
  YS02001762YS02001759        2.05      2.05      2.08      0.01         0.01
  YS02001765YS02001762        2.01      2.01      2.05      0.01         0.01
  YS02001767YS02001765        1.99      1.99      2.01      0.01         0.01
  YS02001770YS02001767        1.98      1.99      1.99      1.79         1.45
  YS02001774YS02001770        1.96      1.96      2.04      0.01         0.01
  YS02001779YS02001774        1.84      1.84      2.04      0.01         0.01
  YS02001783YS02001784        1.69      1.74      1.69      1.87         1.69
  YS02001784YS02001785        1.34      1.69      1.34      1.97         1.34
  YS02001786YS02001788        0.01      1.34      0.01      1.93         0.01
  YS02001790YS02001791        0.01      0.01      0.01      1.60         0.01
  YS02001793JiankangQianchi        0.01      0.01      7.68      0.01         0.01
  YS02001882YS02001884        1.49      1.49      1.54      0.01         0.01
  YS02001884YS02001887        1.68      1.68      1.71      0.01         0.01
  YS02001887YS02001890        1.74      1.74      1.75      0.01         0.01
  YS02001890YS02001895        1.46      1.46      1.78      0.01         0.01
  YS02001895YS02001898        1.45      1.45      1.46      0.01         0.01
  YS02001898YS02001901        1.47      1.47      1.68      0.01         0.01
  YS02001901YS02001904        1.64      1.64      1.68      0.01         0.01
  YS02001904YS02001907        1.64      1.64      1.92      0.01         0.01
  YS02001907YS02006553        1.98      1.98      2.00      0.01         0.01
  YS02001910YS02001907        1.77      1.77      1.91      0.01         0.01
  YS02001915YS02001910        1.50      1.50      1.77      0.01         0.01
  YS02001918YS02001915        1.31      1.31      1.50      0.01         0.01
  YS02001920YS02001918        1.31      1.31      1.33      0.01         0.01
  YS02001923YS02001920        1.23      1.23      1.33      0.01         0.01
  YS02001926YS02001923        0.01      0.01      0.01      0.01         0.01
  YS02001929YS02001926        0.01      0.01      0.01      0.01         0.01
  YS02006553YS02006556        1.85      1.85      1.92      0.01         0.01
  YS02006556YS02006558        1.89      1.89      1.92      0.01         0.01
  YS02006558YS02006561        1.37      1.84      1.37      1.96         1.37
  YS02006561YS02001783        1.26      1.26      1.74      0.01         0.01
  YS02163301YS02001633        2.12      2.12      2.15      0.01         0.01
  YS02163601YS02164001        2.13      2.13      2.18      0.09         0.01
  YS02164001YS02001641        2.13      2.13      2.14      0.43         0.58
  YSB1154YSB6556              1.92      1.92      1.97      0.01         0.01
  YSB1171HS02004479           1.87      1.87      1.97      0.01         0.01
  YSB1174YSB1171              1.95      1.95      2.04      0.01         0.01
  YSB6556YSB1171              1.92      1.92      2.09      0.01         0.01
  
  
  ***************
  Pumping Summary
  ***************
  
  ---------------------------------------------------------------------------------------------------------
                                                  Min       Avg       Max     Total     Power    % Time Off
                        Percent   Number of      Flow      Flow      Flow    Volume     Usage    Pump Curve
  Pump                 Utilized   Start-Ups       LPS       LPS       LPS  10^6 ltr     Kw-hr    Low   High
  ---------------------------------------------------------------------------------------------------------
  CC-R1                   35.55           2      0.00    683.00    683.00     6.993    136.65    0.0   49.8
  CC-R2                   34.45           2      0.00    683.00    683.00     6.776    132.62    0.0   51.4
  CC-S1                   37.09           2      0.00    200.00    200.00     2.136     13.22    0.0   35.0
  CC-S2                   36.33           2      0.00    200.00    200.00     2.093     12.83    0.0   35.7
  JK-R1                   18.46           7      0.00   1000.00   1000.00     5.318     51.07    0.0    0.0
  JK-R2                    0.16           1      0.00   1000.00   1000.00     0.047      0.36    0.0    0.0
  JK-S                    31.29           3      0.00    300.00    300.00     2.704     42.47    0.0    0.0
  XR-1                    97.91           2      0.00     95.00     95.00     2.679      9.62    0.0    0.0
  XR-2                    93.94           2      0.00     95.00     95.00     2.570      8.78    0.0    0.0
  XR-3                     0.00           1      0.00     95.00     95.00     0.000      0.00    0.0    0.0
  XR-4                     0.00           1      0.00     95.00     95.00     0.000      0.00    0.0    0.0
  

  Analysis begun on:  Tue Jul 11 11:23:35 2023
  Analysis ended on:  Tue Jul 11 11:23:40 2023
  Total elapsed time: 00:00:05