
  OWA STORM WATER MANAGEMENT MODEL - VERSION v5.1.14 (OWA 2022-07-31)
  --------------------------------------------------------------

  WARNING 04: minimum elevation drop used for Conduit WS02004404WS02004405
  WARNING 03: negative offset ignored for Link YS02001904YS02001907
  
  *********************************************************
  NOTE: The summary statistics displayed in this report are
  based on results found at every computational time step,  
  not just on results from each reporting time step.
  *********************************************************
  
  ****************
  Analysis Options
  ****************
  Flow Units ............... LPS
  Process Models:
    Rainfall/Runoff ........ YES
    RDII ................... NO
    Snowmelt ............... NO
    Groundwater ............ NO
    Flow Routing ........... YES
    Ponding Allowed ........ NO
    Water Quality .......... NO
  Infiltration Method ...... HORTON
  Flow Routing Method ...... DYNWAVE
  Surcharge Method ......... EXTRAN
  Starting Date ............ 08/28/2015 08:00:00
  Ending Date .............. 08/28/2015 16:00:00
  Antecedent Dry Days ...... 8.0
  Report Time Step ......... 00:01:00
  Wet Time Step ............ 00:01:00
  Dry Time Step ............ 00:01:00
  Routing Time Step ........ 30.00 sec
  Variable Time Step ....... YES
  Maximum Trials ........... 8
  Number of Threads ........ 4
  Head Tolerance ........... 0.001500 m
  
  
  **************************        Volume         Depth
  Runoff Quantity Continuity     hectare-m            mm
  **************************     ---------       -------
  Total Precipitation ......         1.985        32.766
  Evaporation Loss .........         0.000         0.000
  Infiltration Loss ........         0.237         3.904
  Surface Runoff ...........         1.688        27.858
  Final Storage ............         0.061         1.008
  Continuity Error (%) .....        -0.012
  
  
  **************************        Volume        Volume
  Flow Routing Continuity        hectare-m      10^6 ltr
  **************************     ---------     ---------
  Dry Weather Inflow .......         0.630         6.296
  Wet Weather Inflow .......         1.687        16.871
  Groundwater Inflow .......         0.000         0.000
  RDII Inflow ..............         0.000         0.000
  External Inflow ..........         0.105         1.045
  External Outflow .........         2.080        20.796
  Flooding Loss ............         0.265         2.652
  Evaporation Loss .........         0.000         0.000
  Exfiltration Loss ........         0.000         0.000
  Initial Stored Volume ....         0.303         3.031
  Final Stored Volume ......         0.383         3.829
  Continuity Error (%) .....        -0.127
  
  
  *************************
  Highest Continuity Errors
  *************************
  Node HS02004842 (9.99%)
  Node YS02001884 (3.53%)
  Node YS02001774 (3.12%)
  Node HS02004817 (1.88%)
  Node YSB1171 (1.68%)
  
  
  ***************************
  Time-Step Critical Elements
  ***************************
  Link WS02006280WS02006229 (57.15%)
  Link WS02006252WS02006251 (12.62%)
  Link WS02006238WS02006235 (9.61%)
  Link YS02006556YS02006558 (5.37%)
  Link WS02004404WS02004405 (4.98%)
  
  
  ********************************
  Highest Flow Instability Indexes
  ********************************
  Link YS02006558YS02006561 (27)
  Link YS02006556YS02006558 (16)
  Link WS02006113WS02006111 (16)
  Link YS02006561YS02001783 (8)
  Link WS02006229WS02006228 (8)
  
  
  *************************
  Routing Time Step Summary
  *************************
  Minimum Time Step           :     0.00 sec
  Average Time Step           :     2.66 sec
  Maximum Time Step           :     6.46 sec
  Percent in Steady State     :     0.00
  Average Iterations per Step :     2.46
  Percent Not Converging      :     4.05
  
  
  ***************************
  Subcatchment Runoff Summary
  ***************************
  
  ------------------------------------------------------------------------------------------------------------------------------
                            Total      Total      Total      Total     Imperv       Perv      Total       Total     Peak  Runoff
                           Precip      Runon       Evap      Infil     Runoff     Runoff     Runoff      Runoff   Runoff   Coeff
  Subcatchment                 mm         mm         mm         mm         mm         mm         mm    10^6 ltr      LPS
  ------------------------------------------------------------------------------------------------------------------------------
  sub0                      21.17       0.00       0.00       1.04      18.43       0.45      18.87        0.02     2.87   0.891
  sub1                      21.17       0.00       0.00       1.74      17.59       0.59      18.17        0.12    20.84   0.858
  sub10                     21.17       0.00       0.00       1.24      18.19       0.46      18.64        0.21    35.56   0.881
  sub11                     21.17       0.00       0.00       1.22      18.20       0.47      18.68        0.22    38.04   0.882
  sub12                     21.17       0.00       0.00       1.99      17.23       0.77      18.00        0.16    28.50   0.850
  sub14                     21.17       0.00       0.00       1.39      18.00       0.52      18.51        0.18    30.75   0.874
  sub15                     21.17       0.00       0.00       5.14      13.84       1.22      15.06        0.26    44.48   0.711
  sub16                     21.17       0.00       0.00       5.46      13.27       1.53      14.80        0.15    27.75   0.699
  sub17                     21.17       0.00       0.00       5.31      13.46       1.46      14.93        0.13    22.81   0.705
  sub2                      21.17       0.00       0.00       6.75      12.43       1.09      13.52        0.13    20.75   0.638
  sub22                     21.17       0.00       0.00       7.56      11.28       1.54      12.82        0.81   138.75   0.606
  sub23                     21.17       0.00       0.00       6.34      12.47       1.49      13.96        0.67   115.89   0.659
  sub3                      21.17       0.00       0.00       6.94      12.39       0.90      13.29        0.30    48.01   0.628
  sub4                      21.17       0.00       0.00       1.86      17.43       0.47      17.89        0.37    59.52   0.845
  sub5                      21.17       0.00       0.00       1.08      18.38       0.40      18.78        0.21    36.57   0.887
  sub60                     42.35       0.00       0.00       1.92      36.05       3.16      39.22        0.52    93.59   0.926
  sub61                     42.35       0.00       0.00       2.78      34.01       4.42      38.43        0.71   127.95   0.908
  sub62                     42.35       0.00       0.00       1.28      37.66       2.11      39.77        1.09   186.74   0.939
  sub63                     42.35       0.00       0.00       5.10      29.09       7.18      36.27        0.82   145.39   0.857
  sub64                     42.35       0.00       0.00       2.58      34.78       3.77      38.55        0.93   156.80   0.910
  sub65                     42.35       0.00       0.00       2.24      35.58       3.27      38.85        1.07   179.49   0.917
  sub66                     42.35       0.00       0.00       6.08      28.98       6.20      35.18        1.64   268.42   0.831
  sub67                     42.35       0.00       0.00       1.22      37.71       2.16      39.87        0.74   140.96   0.942
  sub68                     42.35       0.00       0.00       2.30      35.22       3.63      38.85        1.07   186.86   0.917
  sub69                     42.35       0.00       0.00       2.07      35.87       4.28      40.16        1.49   240.06   0.948
  sub7                      21.17       0.00       0.00       1.37      18.01       0.53      18.55        0.06    11.05   0.876
  sub70                     42.35       0.00       0.00       6.44      27.78       7.96      35.73        1.03   159.33   0.844
  sub71                     42.35       0.00       0.00       1.31      37.62       2.08      39.70        1.04   172.65   0.937
  sub72                     42.35       0.00       0.00       1.17      37.97       1.80      39.77        0.55    89.50   0.939
  sub8                      21.17       0.00       0.00       1.39      18.00       0.52      18.52        0.12    20.72   0.875
  sub9                      21.17       0.00       0.00       1.39      18.00       0.52      18.52        0.09    15.56   0.875
  
  
  ******************
  Node Depth Summary
  ******************
  
  ---------------------------------------------------------------------------------
                                 Average  Maximum  Maximum  Time of Max    Reported
                                   Depth    Depth      HGL   Occurrence   Max Depth
  Node                 Type       Meters   Meters   Meters  days hr:min      Meters
  ---------------------------------------------------------------------------------
  HS02004478           JUNCTION     0.11     0.25     9.47     0  02:24        0.25
  HS02004479           JUNCTION     0.18     0.37     9.58     0  02:24        0.37
  HS02004480           JUNCTION     0.15     0.34     9.58     0  02:24        0.34
  HS02004770           JUNCTION     0.17     0.33    10.16     0  02:23        0.33
  HS02004777           JUNCTION     0.20     0.35    10.15     0  02:23        0.35
  HS02004785           JUNCTION     0.09     0.22    10.12     0  02:24        0.22
  HS02004788           JUNCTION     0.06     0.14    10.03     0  02:24        0.14
  HS02004792           JUNCTION     0.07     0.19     9.71     0  02:23        0.19
  HS02004799           JUNCTION     0.20     0.42     9.63     0  02:24        0.42
  HS02004802           JUNCTION     0.21     0.37     9.49     0  02:25        0.37
  HS02004807           JUNCTION     0.17     0.33     9.50     0  02:25        0.33
  HS02004817           JUNCTION     0.48     0.66     9.51     0  02:25        0.66
  HS02004824           JUNCTION     0.04     0.10     9.50     0  02:25        0.10
  HS02004830           JUNCTION     0.06     0.10     9.57     0  02:24        0.10
  HS02004837           JUNCTION     0.04     0.08     9.66     0  02:23        0.08
  HS02004842           JUNCTION     0.34     0.39     9.66     0  02:23        0.39
  HS02004848           JUNCTION     0.02     0.06     9.66     0  02:23        0.06
  HS02004852           JUNCTION     0.02     0.07     9.58     0  02:24        0.07
  HS02004856           JUNCTION     0.09     0.14     9.57     0  02:24        0.14
  HS02004862           JUNCTION     0.04     0.10     9.48     0  02:24        0.10
  HS02004870           JUNCTION     0.03     0.08     9.37     0  02:24        0.08
  HS02004876           JUNCTION     0.07     0.15     9.18     0  02:23        0.15
  HS02004881           JUNCTION     0.02     0.06     9.08     0  01:44        0.05
  HS02004901           JUNCTION     0.18     0.34    10.16     0  02:23        0.34
  WS02001211           JUNCTION     0.62     0.71     5.55     0  02:30        0.71
  WS02001212           JUNCTION     0.37     0.47     5.53     0  02:30        0.47
  WS02001213           JUNCTION     0.58     0.75     5.52     0  02:29        0.75
  WS02003059           JUNCTION     0.64     0.82     5.51     0  02:29        0.82
  WS02003060           JUNCTION     0.37     0.57     5.50     0  02:28        0.57
  WS02003066           JUNCTION     0.22     0.38     5.93     0  02:26        0.38
  WS02003067           JUNCTION     0.53     0.81     6.13     0  02:26        0.81
  WS02003069           JUNCTION     0.41     0.64     5.23     0  02:28        0.64
  WS02003072           JUNCTION     0.47     0.70     5.07     0  02:29        0.70
  WS02003073           JUNCTION     0.28     0.43     4.50     0  02:29        0.43
  WS02004138           JUNCTION     0.13     0.14     7.39     0  00:29        0.14
  WS02004139           JUNCTION     0.56     0.65     5.56     0  02:30        0.65
  WS02004401           JUNCTION     0.70     1.19     7.19     0  02:24        1.19
  WS02004402           JUNCTION     0.72     1.19     7.15     0  02:24        1.19
  WS02004403           JUNCTION     0.73     1.17     7.10     0  02:24        1.17
  WS02004404           JUNCTION     0.80     1.21     7.06     0  02:24        1.21
  WS02004405           JUNCTION     0.79     1.19     7.04     0  02:24        1.19
  WS02004406           JUNCTION     0.79     1.14     6.97     0  02:24        1.14
  WS02004407           JUNCTION     0.21     0.39     6.70     0  02:25        0.39
  WS02004409           JUNCTION     0.47     0.93     6.70     0  02:26        0.93
  WS02004410           JUNCTION     0.49     0.92     6.64     0  02:26        0.92
  WS02004411           JUNCTION     0.50     0.90     6.58     0  02:26        0.90
  WS02004412           JUNCTION     0.52     0.88     6.52     0  02:26        0.88
  WS02004413           JUNCTION     0.66     1.01     6.48     0  02:26        1.01
  WS02006109           JUNCTION     0.81     1.53     8.14     0  02:24        1.53
  WS02006110           JUNCTION     0.76     1.34     7.92     0  02:24        1.34
  WS02006111           JUNCTION     0.32     0.82     7.52     0  02:24        0.82
  WS02006112           JUNCTION     0.89     1.50     7.38     0  02:24        1.50
  WS02006113           JUNCTION     0.36     0.84     7.73     0  02:24        0.84
  WS02006115           JUNCTION     0.61     1.17     7.31     0  02:24        1.17
  WS02006116           JUNCTION     0.68     1.21     7.25     0  02:24        1.21
  WS02006228           JUNCTION     0.84     1.68     8.33     0  02:24        1.68
  WS02006229           JUNCTION     0.84     1.75     8.44     0  02:24        1.75
  WS02006230           JUNCTION     0.82     1.74     8.49     0  02:24        1.74
  WS02006231           JUNCTION     0.57     1.50     8.62     0  03:21        1.40
  WS02006232           JUNCTION     0.68     1.53     8.57     0  02:17        1.53
  WS02006234           JUNCTION     0.59     1.48     8.64     0  02:17        1.48
  WS02006235           JUNCTION     0.62     1.47     8.63     0  02:23        1.47
  WS02006238           JUNCTION     0.65     1.49     8.63     0  02:23        1.49
  WS02006239           JUNCTION     0.60     1.49     8.69     0  03:21        1.43
  WS02006240           JUNCTION     0.56     1.52     8.82     0  03:21        1.35
  WS02006242           JUNCTION     0.61     1.55     8.82     0  03:21        1.39
  WS02006243           JUNCTION     0.52     1.43     8.85     0  03:21        1.24
  WS02006245           JUNCTION     0.50     1.34     8.83     0  03:21        1.19
  WS02006247           JUNCTION     0.51     1.28     8.78     0  03:21        1.18
  WS02006248           JUNCTION     0.46     1.10     8.69     0  01:38        1.10
  WS02006249           JUNCTION     0.48     1.09     8.69     0  01:38        1.09
  WS02006251           JUNCTION     0.49     1.71     9.38     0  01:39        1.22
  WS02006252           JUNCTION     0.32     1.50     9.74     0  00:00        0.77
  WS02006253           JUNCTION     0.52     1.92     9.57     0  01:39        1.35
  WS02006256           JUNCTION     1.25     2.35     9.28     0  00:00        2.35
  WS02006280           JUNCTION     0.12     0.28     8.55     0  02:24        0.28
  WS02006284           JUNCTION     0.42     0.61     9.01     0  02:25        0.61
  WS02006287           JUNCTION     0.16     0.35     9.31     0  02:24        0.35
  WSF200               JUNCTION     0.21     0.41     5.65     0  02:26        0.41
  YS02001580           JUNCTION     0.00     0.00     8.54     0  00:00        0.00
  YS02001583           JUNCTION     0.00     0.00     8.50     0  00:00        0.00
  YS02001586           JUNCTION     0.10     0.22     8.39     0  02:23        0.22
  YS02001590           JUNCTION     0.20     0.44     8.30     0  02:24        0.44
  YS02001593           JUNCTION     0.11     0.39     8.26     0  02:24        0.39
  YS02001596           JUNCTION     0.22     0.83     8.25     0  02:24        0.83
  YS02001600           JUNCTION     0.34     1.10     8.23     0  02:25        1.10
  YS02001601           JUNCTION     0.55     1.37     8.21     0  02:25        1.37
  YS02001602           JUNCTION     0.46     1.18     8.08     0  02:25        1.18
  YS02001605           JUNCTION     0.42     1.04     7.95     0  02:25        1.04
  YS02001607           JUNCTION     0.40     0.84     7.69     0  02:25        0.84
  YS02001610           JUNCTION     0.44     0.89     7.69     0  02:25        0.89
  YS02001613           JUNCTION     0.40     0.84     7.68     0  02:25        0.84
  YS02001616           JUNCTION     0.32     0.75     7.67     0  02:25        0.75
  YS02001619           JUNCTION     0.30     0.73     7.65     0  02:25        0.73
  YS02001622           JUNCTION     0.29     0.72     7.62     0  02:25        0.72
  YS02001625           JUNCTION     0.56     1.01     7.61     0  02:26        1.01
  YS02001629           JUNCTION     0.43     0.99     7.54     0  02:25        0.99
  YS02001633           JUNCTION     0.51     1.04     7.49     0  02:25        1.04
  YS02001641           JUNCTION     0.49     0.94     7.38     0  02:25        0.94
  YS02001644           JUNCTION     0.49     0.91     7.35     0  02:25        0.91
  YS02001647           JUNCTION     0.24     0.57     7.18     0  02:26        0.57
  YS02001649           JUNCTION     0.28     0.71     7.10     0  02:35        0.71
  YS02001652           JUNCTION     0.15     0.51     7.11     0  02:36        0.51
  YS02001655           JUNCTION     0.08     0.24     7.09     0  02:36        0.24
  YS02001658           JUNCTION     0.07     0.17     7.31     0  02:21        0.17
  YS02001661           JUNCTION     0.13     0.23     7.64     0  02:21        0.23
  YS02001664           JUNCTION     0.06     0.15     8.07     0  02:21        0.15
  YS02001745           JUNCTION     0.05     0.13     7.65     0  01:41        0.13
  YS02001748           JUNCTION     0.06     0.15     7.22     0  01:41        0.15
  YS02001751           JUNCTION     0.06     0.19     7.07     0  02:35        0.19
  YS02001754           JUNCTION     0.11     0.48     7.09     0  02:36        0.46
  YS02001757           JUNCTION     0.29     0.82     7.08     0  02:35        0.82
  YS02001759           JUNCTION     0.23     0.71     7.08     0  02:35        0.71
  YS02001762           JUNCTION     0.21     0.68     7.08     0  02:36        0.67
  YS02001765           JUNCTION     0.19     0.63     7.08     0  02:36        0.62
  YS02001767           JUNCTION     0.19     0.59     7.08     0  02:36        0.59
  YS02001770           JUNCTION     0.20     0.59     7.09     0  02:37        0.59
  YS02001774           JUNCTION     0.27     0.67     7.09     0  02:37        0.66
  YS02001779           JUNCTION     0.09     0.40     7.09     0  02:36        0.40
  YS02001783           JUNCTION     0.24     0.58     6.72     0  02:23        0.57
  YS02001784           JUNCTION     0.26     0.59     6.66     0  02:23        0.58
  YS02001786           JUNCTION     0.23     0.49     6.52     0  02:23        0.49
  YS02001788           JUNCTION     0.17     0.39     6.36     0  02:24        0.39
  YS02001790           JUNCTION     0.20     0.47     6.11     0  02:24        0.46
  YS02001791           JUNCTION     0.13     0.29     5.76     0  02:24        0.29
  YS02001793           JUNCTION     0.07     0.15     4.98     0  02:24        0.15
  YS02001882           JUNCTION     0.28     0.61     7.32     0  02:25        0.60
  YS02001884           JUNCTION     0.37     0.70     7.32     0  02:23        0.70
  YS02001887           JUNCTION     0.45     0.78     7.32     0  02:22        0.78
  YS02001890           JUNCTION     0.48     0.81     7.32     0  02:21        0.81
  YS02001895           JUNCTION     0.25     0.57     7.32     0  02:23        0.57
  YS02001898           JUNCTION     0.26     0.59     7.32     0  02:24        0.58
  YS02001901           JUNCTION     0.37     0.71     7.32     0  02:22        0.70
  YS02001904           JUNCTION     0.35     0.69     7.32     0  02:24        0.68
  YS02001907           JUNCTION     0.67     1.03     7.32     0  02:22        1.03
  YS02001910           JUNCTION     0.47     0.82     7.32     0  02:21        0.82
  YS02001915           JUNCTION     0.28     0.60     7.31     0  02:21        0.59
  YS02001918           JUNCTION     0.09     0.24     7.31     0  02:22        0.24
  YS02001920           JUNCTION     0.18     0.32     7.33     0  02:23        0.32
  YS02001923           JUNCTION     0.06     0.14     7.40     0  02:22        0.14
  YS02001926           JUNCTION     0.13     0.26     7.70     0  02:22        0.26
  YS02001929           JUNCTION     0.06     0.14     7.83     0  02:22        0.14
  YS02006553           JUNCTION     0.68     1.03     7.32     0  02:21        1.03
  YS02006556           JUNCTION     0.65     1.00     7.31     0  02:23        0.99
  YS02006558           JUNCTION     0.69     1.05     7.32     0  02:23        1.04
  YS02006561           JUNCTION     0.14     0.34     7.00     0  02:23        0.32
  YS02163301           JUNCTION     0.46     1.00     7.52     0  02:25        1.00
  YS02163601           JUNCTION     0.55     1.04     7.43     0  02:25        1.04
  YS02164001           JUNCTION     0.48     0.95     7.40     0  02:25        0.95
  YSB1154              JUNCTION     0.32     0.52     9.58     0  02:24        0.52
  YSB1171              JUNCTION     0.46     0.68     9.58     0  02:24        0.68
  YSB1174              JUNCTION     0.27     0.47     9.58     0  02:24        0.47
  YSB6556              JUNCTION     0.22     0.41     9.58     0  02:24        0.41
  CC-1                 OUTFALL      0.00     0.00     0.00     0  00:00        0.00
  CC-2                 OUTFALL      0.00     0.00     0.00     0  00:00        0.00
  JK-1                 OUTFALL      0.00     0.00     0.00     0  00:00        0.00
  JK-2                 OUTFALL      0.00     0.00     0.00     0  00:00        0.00
  WSC                  OUTFALL      0.28     0.43     1.10     0  02:30        0.43
  CC-storage           STORAGE      0.82     1.40     6.90     0  02:35        1.40
  JK-storage           STORAGE      2.34     4.21     5.01     0  02:19        4.20
  XR-storage           STORAGE      7.86     9.26     7.26     0  08:00        9.26
  
  
  *******************
  Node Inflow Summary
  *******************
  
  -------------------------------------------------------------------------------------------------
                                  Maximum  Maximum                  Lateral       Total        Flow
                                  Lateral    Total  Time of Max      Inflow      Inflow     Balance
                                   Inflow   Inflow   Occurrence      Volume      Volume       Error
  Node                 Type           LPS      LPS  days hr:min    10^6 ltr    10^6 ltr     Percent
  -------------------------------------------------------------------------------------------------
  HS02004478           JUNCTION      0.00   574.80     0  02:24           0        3.55       0.008
  HS02004479           JUNCTION      0.00    63.77     0  02:23           0       0.379       0.197
  HS02004480           JUNCTION      0.00   420.98     0  02:24           0        2.48       0.032
  HS02004770           JUNCTION    115.89   143.34     0  02:22       0.666       0.819       0.376
  HS02004777           JUNCTION      0.03   142.99     0  02:23    0.000864       0.818       0.642
  HS02004785           JUNCTION      0.15   142.94     0  02:23     0.00432       0.817       0.062
  HS02004788           JUNCTION     46.15   188.76     0  02:24       0.307        1.12       0.035
  HS02004792           JUNCTION    139.03   326.99     0  02:23       0.818        1.94       0.021
  HS02004799           JUNCTION     30.75   357.33     0  02:23       0.176        2.12       0.153
  HS02004802           JUNCTION      0.00   154.27     0  02:25           0        1.09       0.356
  HS02004807           JUNCTION     38.04   154.19     0  02:25       0.217        1.09       0.406
  HS02004817           JUNCTION      0.60   117.41     0  02:25      0.0173       0.887       1.916
  HS02004824           JUNCTION     59.57   117.07     0  02:23       0.375       0.869       0.063
  HS02004830           JUNCTION      0.15    57.53     0  02:23     0.00432       0.496       0.249
  HS02004837           JUNCTION     41.91    57.42     0  02:23       0.388       0.506       0.161
  HS02004842           JUNCTION      0.00    16.55     0  03:00           0        0.13      11.094
  HS02004848           JUNCTION     48.01    48.01     0  02:23       0.299       0.299       0.017
  HS02004852           JUNCTION      0.00    32.25     0  02:23           0       0.182       0.031
  HS02004856           JUNCTION     15.56    47.58     0  02:23      0.0891       0.271       0.536
  HS02004862           JUNCTION     20.95    68.45     0  02:24       0.132       0.401       0.043
  HS02004870           JUNCTION     20.72    88.84     0  02:23       0.118       0.519       0.022
  HS02004876           JUNCTION     20.84   109.51     0  02:23       0.121        0.64       0.084
  HS02004881           JUNCTION     11.05   120.36     0  02:23      0.0625       0.702       0.036
  HS02004901           JUNCTION     27.75    27.75     0  02:22       0.155       0.155       1.148
  WS02001211           JUNCTION      7.35   202.41     0  03:28       0.212        5.44       0.612
  WS02001212           JUNCTION      0.00   206.53     0  03:28           0        5.41       0.290
  WS02001213           JUNCTION      0.00   208.54     0  03:27           0        5.39       0.332
  WS02003059           JUNCTION      0.00   214.72     0  03:26           0        5.38       0.595
  WS02003060           JUNCTION     16.53  1111.89     0  02:28       0.476        12.9       0.113
  WS02003066           JUNCTION      0.00   899.56     0  02:26           0        7.04       0.020
  WS02003067           JUNCTION      0.00   899.52     0  02:26           0        7.05       0.061
  WS02003069           JUNCTION      0.32  1112.16     0  02:28     0.00922        12.9       0.119
  WS02003072           JUNCTION      0.00  1112.13     0  02:29           0        12.8       0.162
  WS02003073           JUNCTION      1.82  1113.95     0  02:29      0.0524        12.9       0.168
  WS02004138           JUNCTION      0.00   380.00     0  00:00           0        5.25       0.052
  WS02004139           JUNCTION      0.32   190.95     0  00:29     0.00924        5.26       0.508
  WS02004401           JUNCTION      0.00   899.56     0  02:25           0        7.15       0.144
  WS02004402           JUNCTION      0.00   899.56     0  02:25           0        7.14       0.147
  WS02004403           JUNCTION      0.00   899.56     0  02:25           0        7.13       0.143
  WS02004404           JUNCTION      0.16   899.71     0  02:25     0.00467        7.12       0.121
  WS02004405           JUNCTION      0.04   899.75     0  02:25      0.0011        7.12       0.176
  WS02004406           JUNCTION      0.00   899.75     0  02:24           0         7.1       0.299
  WS02004407           JUNCTION      0.00   899.76     0  02:25           0        7.08       0.020
  WS02004409           JUNCTION      0.00   899.74     0  02:25           0        7.08       0.042
  WS02004410           JUNCTION      0.00   899.61     0  02:25           0        7.08       0.067
  WS02004411           JUNCTION      0.00   899.48     0  02:26           0        7.07       0.084
  WS02004412           JUNCTION      0.00   899.46     0  02:26           0        7.07       0.110
  WS02004413           JUNCTION      0.00   899.50     0  02:26           0        7.06       0.197
  WS02006109           JUNCTION      1.23   877.23     0  02:25      0.0354        7.07       0.134
  WS02006110           JUNCTION      0.00   877.23     0  02:25           0        7.06       0.106
  WS02006111           JUNCTION      0.00   877.31     0  02:25           0        7.06       0.015
  WS02006112           JUNCTION     22.81   899.56     0  02:25       0.128        7.18       0.275
  WS02006113           JUNCTION      0.00   877.23     0  02:25           0        7.06       0.030
  WS02006115           JUNCTION      0.00   899.55     0  02:24           0        7.16       0.093
  WS02006116           JUNCTION      0.00   899.55     0  02:25           0        7.16       0.064
  WS02006228           JUNCTION      0.00   876.00     0  02:25           0        7.04       0.066
  WS02006229           JUNCTION      0.00   875.98     0  02:24           0        7.06       0.105
  WS02006230           JUNCTION     10.28   492.16     0  03:20       0.296        3.52       0.266
  WS02006231           JUNCTION      0.00   481.84     0  03:20           0        3.22      -0.176
  WS02006232           JUNCTION      0.00   481.81     0  03:20           0        3.22       0.175
  WS02006234           JUNCTION      0.00   481.81     0  03:20           0        3.21      -0.146
  WS02006235           JUNCTION      0.00   481.86     0  03:20           0        3.28       0.165
  WS02006238           JUNCTION      0.00   416.40     0  03:29           0        1.91      -0.187
  WS02006239           JUNCTION      0.00   416.54     0  03:22           0        1.87      -0.155
  WS02006240           JUNCTION      0.00   416.92     0  03:22           0        1.84      -0.032
  WS02006242           JUNCTION      0.00   417.15     0  03:22           0        1.82       0.009
  WS02006243           JUNCTION      0.00   417.29     0  03:22           0        1.81      -0.022
  WS02006245           JUNCTION      0.00   417.53     0  03:22           0         1.8       0.318
  WS02006247           JUNCTION      0.00   417.56     0  03:22           0         1.8       0.015
  WS02006248           JUNCTION      0.00   417.94     0  03:22           0         1.8       0.027
  WS02006249           JUNCTION      0.00   556.29     0  01:44           0        3.58       0.118
  WS02006251           JUNCTION      0.08   542.98     0  01:44     0.00222         3.6      -0.045
  WS02006252           JUNCTION      0.00   400.00     0  00:00           0        2.87      -0.008
  WS02006253           JUNCTION      2.87   197.53     0  00:00      0.0153        0.73       0.106
  WS02006256           JUNCTION      0.00   300.00     0  00:00           0        2.29      -0.112
  WS02006280           JUNCTION      0.00   575.02     0  02:25           0        3.55       0.006
  WS02006284           JUNCTION      0.10   574.98     0  02:25     0.00275        3.55       0.021
  WS02006287           JUNCTION      0.00   574.83     0  02:24           0        3.55       0.024
  WSF200               JUNCTION      0.00   899.58     0  02:26           0        7.04       0.009
  YS02001580           JUNCTION      0.00     0.00     0  00:00           0           0       0.000 ltr
  YS02001583           JUNCTION      0.00     0.00     0  00:00           0           0       0.000 ltr
  YS02001586           JUNCTION    159.33   159.33     0  02:23        1.03        1.03       0.021
  YS02001590           JUNCTION      0.00   159.30     0  02:23           0        1.03      -0.012
  YS02001593           JUNCTION      0.00   158.52     0  02:25           0        1.03      -0.001
  YS02001596           JUNCTION      0.00   162.42     0  02:28           0        1.03      -0.006
  YS02001600           JUNCTION      0.00   162.64     0  02:28           0        1.03       0.003
  YS02001601           JUNCTION    240.06   393.59     0  02:24        1.49        2.52       0.027
  YS02001602           JUNCTION      0.00   393.58     0  02:24           0        2.52       0.017
  YS02001605           JUNCTION      0.00   393.58     0  02:24           0        2.52       0.018
  YS02001607           JUNCTION      0.00   393.57     0  02:24           0        2.52       0.081
  YS02001610           JUNCTION      0.00   392.59     0  02:24           0        2.52       0.105
  YS02001613           JUNCTION      0.00   391.50     0  02:24           0        2.52       0.074
  YS02001616           JUNCTION      0.00   391.36     0  02:25           0        2.52       0.022
  YS02001619           JUNCTION    268.42   655.52     0  02:24        1.64        4.16       0.001
  YS02001622           JUNCTION      0.00   654.81     0  02:26           0        4.15      -0.001
  YS02001625           JUNCTION      0.00   655.36     0  02:26           0        4.15       0.233
  YS02001629           JUNCTION      0.00   655.71     0  02:26           0        4.14       0.021
  YS02001633           JUNCTION    179.69   827.64     0  02:25        1.07        5.22       0.065
  YS02001641           JUNCTION      0.00   827.99     0  02:25           0        5.22       0.057
  YS02001644           JUNCTION    156.84   979.08     0  02:25       0.927        6.14       0.054
  YS02001647           JUNCTION      0.00   978.79     0  02:24           0        6.12       0.008
  YS02001649           JUNCTION      0.00  1115.36     0  02:23           0        6.95       0.008
  YS02001652           JUNCTION      0.00   145.04     0  02:20           0       0.827      -0.110
  YS02001655           JUNCTION      0.15   145.46     0  02:21     0.00443       0.827       0.079
  YS02001658           JUNCTION      0.00   145.33     0  02:21           0       0.823      -0.002
  YS02001661           JUNCTION      0.00   145.37     0  02:21           0       0.823       0.047
  YS02001664           JUNCTION    145.39   145.39     0  02:21       0.823       0.823      -0.012
  YS02001745           JUNCTION     93.59    93.59     0  01:41       0.515       0.515      -0.004
  YS02001748           JUNCTION      0.04    93.58     0  01:41      0.0013       0.517       0.001
  YS02001751           JUNCTION      0.01    93.64     0  01:41    0.000317       0.517       0.081
  YS02001754           JUNCTION      0.26    96.62     0  02:40     0.00749       0.524      -0.105
  YS02001757           JUNCTION      0.00  1468.12     0  02:23           0        9.29       0.018
  YS02001759           JUNCTION    127.99   298.56     0  02:42       0.706        1.81      -0.011
  YS02001762           JUNCTION      0.00   188.27     0  02:42           0        1.11       0.017
  YS02001765           JUNCTION      0.00   189.27     0  02:42           0        1.11       0.019
  YS02001767           JUNCTION      0.54   180.96     0  01:43      0.0154        1.11       0.018
  YS02001770           JUNCTION    186.89   186.89     0  01:42        1.09        1.12      -0.007
  YS02001774           JUNCTION      0.00    33.01     0  01:06           0      0.0402       3.216
  YS02001779           JUNCTION      0.01    15.66     0  02:58    0.000144       0.013       0.177
  YS02001783           JUNCTION      0.00   606.30     0  02:23           0        3.45       0.008
  YS02001784           JUNCTION      1.06   598.35     0  02:23      0.0305        3.48       0.015
  YS02001786           JUNCTION      0.06   592.46     0  02:23     0.00162        3.48       0.020
  YS02001788           JUNCTION      0.07   590.33     0  02:23     0.00204        3.48       0.010
  YS02001790           JUNCTION      0.15   589.46     0  02:24     0.00446        3.48       0.012
  YS02001791           JUNCTION      0.00   587.84     0  02:24           0        3.48       0.005
  YS02001793           JUNCTION      0.00   588.02     0  02:24           0        3.48       0.005
  YS02001882           JUNCTION      0.00    24.78     0  01:17           0      0.0386       1.898
  YS02001884           JUNCTION      0.00    39.72     0  01:15           0      0.0716       3.658
  YS02001887           JUNCTION    141.41   141.41     0  01:41       0.754       0.785       0.558
  YS02001890           JUNCTION      0.00   148.59     0  02:23           0       0.747       0.698
  YS02001895           JUNCTION      0.00   139.39     0  02:23           0       0.741       0.288
  YS02001898           JUNCTION      0.00   154.33     0  02:23           0        0.74       0.003
  YS02001901           JUNCTION      0.00   155.16     0  02:23           0       0.743       0.467
  YS02001904           JUNCTION      0.00   143.94     0  02:22           0       0.749       0.388
  YS02001907           JUNCTION      0.00   432.93     0  02:22           0        2.41       0.750
  YS02001910           JUNCTION      0.00   303.99     0  02:23           0        1.67       0.443
  YS02001915           JUNCTION    172.67   272.40     0  02:23        1.04        1.67       0.093
  YS02001918           JUNCTION      0.00    94.74     0  02:23           0       0.631       0.050
  YS02001920           JUNCTION      2.87    92.37     0  02:22      0.0827       0.632       0.168
  YS02001923           JUNCTION      0.04    89.50     0  02:22     0.00109       0.549       0.002
  YS02001926           JUNCTION      0.05    89.53     0  02:22      0.0015       0.548       0.055
  YS02001929           JUNCTION     89.50    89.50     0  02:22       0.547       0.547      -0.008
  YS02006553           JUNCTION      0.00   419.01     0  02:24           0        2.41       0.489
  YS02006556           JUNCTION      0.00   414.21     0  02:23           0        2.42       0.347
  YS02006558           JUNCTION    187.74   614.49     0  02:22        1.09        3.48       0.154
  YS02006561           JUNCTION      0.00   636.41     0  02:25           0        3.44      -0.060
  YS02163301           JUNCTION      0.00   656.89     0  02:27           0        4.15       0.041
  YS02163601           JUNCTION      0.11   827.82     0  02:26     0.00317        5.21       0.100
  YS02164001           JUNCTION      0.00   827.87     0  02:26           0        5.21       0.050
  YSB1154              JUNCTION     36.57    36.57     0  02:22       0.213       0.213       0.679
  YSB1171              JUNCTION      0.00    64.00     0  02:23           0       0.377       1.711
  YSB1174              JUNCTION     28.50    28.50     0  02:21       0.157       0.158       0.818
  YSB6556              JUNCTION      0.00    36.32     0  02:22           0       0.214       0.595
  CC-1                 OUTFALL       0.00   683.00     0  00:00           0        4.21       0.000
  CC-2                 OUTFALL       0.00   683.00     0  00:00           0        2.54       0.000
  JK-1                 OUTFALL       0.00  1000.00     0  00:00           0        1.15       0.000
  JK-2                 OUTFALL       0.00  1000.00     0  00:00           0      0.0484       0.000
  WSC                  OUTFALL       0.00  1113.98     0  02:30           0        12.8       0.000
  CC-storage           STORAGE       0.00  1447.00     0  02:25           0        11.5      -0.065
  JK-storage           STORAGE       0.00   587.99     0  02:24           0        3.63      -0.031
  XR-storage           STORAGE     200.00   200.00     0  00:00        5.76        6.36       0.001
  
  
  **********************
  Node Surcharge Summary
  **********************
  
  Surcharging occurs when water rises above the top of the highest conduit.
  ---------------------------------------------------------------------
                                               Max. Height   Min. Depth
                                   Hours       Above Crown    Below Rim
  Node                 Type      Surcharged         Meters       Meters
  ---------------------------------------------------------------------
  WS02004401           JUNCTION        1.62          0.192        1.468
  WS02004402           JUNCTION        1.67          0.186        1.554
  WS02004403           JUNCTION        1.68          0.166        1.864
  WS02004404           JUNCTION        1.77          0.212        2.568
  WS02004405           JUNCTION        1.74          0.188        2.612
  WS02004406           JUNCTION        1.73          0.145        2.305
  WS02004413           JUNCTION        0.53          0.008        2.192
  WS02006109           JUNCTION        2.08          0.705        1.115
  WS02006110           JUNCTION        1.90          0.429        1.421
  WS02006111           JUNCTION        0.08          0.006        1.864
  WS02006112           JUNCTION        1.94          0.498        1.182
  WS02006113           JUNCTION        0.18          0.035        1.895
  WS02006115           JUNCTION        1.50          0.157        2.093
  WS02006116           JUNCTION        1.52          0.154        2.136
  WS02006228           JUNCTION        2.07          0.853        1.347
  WS02006230           JUNCTION        1.76          0.663        0.907
  WS02006231           JUNCTION        1.88          0.786        0.744
  WS02006232           JUNCTION        1.95          0.830        0.650
  WS02006234           JUNCTION        1.90          0.764        0.476
  WS02006235           JUNCTION        1.92          0.756        0.534
  WS02006238           JUNCTION        1.93          0.768        0.662
  WS02006239           JUNCTION        1.91          0.746        0.544
  WS02006240           JUNCTION        1.90          0.812        0.578
  WS02006242           JUNCTION        1.91          0.820        0.000
  WS02006243           JUNCTION        1.88          0.718        0.052
  WS02006245           JUNCTION        1.87          0.630        0.220
  WS02006247           JUNCTION        1.87          0.567        0.193
  WS02006248           JUNCTION        1.85          0.380        0.000
  WS02006249           JUNCTION        1.85          0.390        0.000
  WS02006251           JUNCTION        1.82          0.682        0.498
  WS02006252           JUNCTION        1.96          1.100        0.000
  WS02006253           JUNCTION        1.82          0.884        1.596
  WS02006256           JUNCTION        4.48          2.050        0.000
  YS02001596           JUNCTION        0.24          0.101        0.969
  YS02001600           JUNCTION        1.41          0.420        0.770
  YS02001601           JUNCTION        1.99          0.750        0.690
  YS02001602           JUNCTION        1.71          0.583        0.687
  YS02001605           JUNCTION        1.56          0.444        0.736
  YS02001625           JUNCTION        0.07          0.006        0.774
  YS02001633           JUNCTION        0.16          0.018        1.042
  YS02001907           JUNCTION        0.08          0.021        0.929
  YS02006553           JUNCTION        0.21          0.032        1.158
  YS02163601           JUNCTION        0.30          0.037        1.043
  
  
  *********************
  Node Flooding Summary
  *********************
  
  Flooding refers to all water that overflows a node, whether it ponds or not.
  --------------------------------------------------------------------------
                                                             Total   Maximum
                                 Maximum   Time of Max       Flood    Ponded
                        Hours       Rate    Occurrence      Volume     Depth
  Node                 Flooded       LPS   days hr:min    10^6 ltr    Meters
  --------------------------------------------------------------------------
  WS02006242              0.01      4.78      0  03:21       0.000     0.000
  WS02006248              0.01     23.39      0  01:38       0.000     0.000
  WS02006249              1.82    392.07      0  02:25       1.775     0.000
  WS02006252              0.01    245.63      0  00:00       0.000     0.000
  WS02006256              2.12    293.19      0  00:00       0.877     0.000
  
  
  **********************
  Storage Volume Summary
  **********************
  
  --------------------------------------------------------------------------------------------------
                         Average     Avg  Evap Exfil       Maximum     Max    Time of Max    Maximum
                          Volume    Pcnt  Pcnt  Pcnt        Volume    Pcnt     Occurrence    Outflow
  Storage Unit           1000 m3    Full  Loss  Loss       1000 m3    Full    days hr:min        LPS
  --------------------------------------------------------------------------------------------------
  CC-storage               2.294      36     0     0         3.902      61       0  02:35    1783.53
  JK-storage               0.118      40     0     0         0.211      73       0  02:19    2300.00
  XR-storage               0.943      66     0     0         1.111      77       0  08:00     380.00
  
  
  ***********************
  Outfall Loading Summary
  ***********************
  
  -----------------------------------------------------------
                         Flow       Avg       Max       Total
                         Freq      Flow      Flow      Volume
  Outfall Node           Pcnt       LPS       LPS    10^6 ltr
  -----------------------------------------------------------
  CC-1                  32.72    683.00    683.00       4.210
  CC-2                  18.44    683.00    683.00       2.536
  JK-1                   5.95   1000.00   1000.00       1.153
  JK-2                   0.19   1000.00   1000.00       0.048
  WSC                   99.94    559.32   1113.98      12.848
  -----------------------------------------------------------
  System                31.45   3925.32   1113.98      20.796
  
  
  ********************
  Link Flow Summary
  ********************
  
  -----------------------------------------------------------------------------
                                 Maximum  Time of Max   Maximum    Max/    Max/
                                  |Flow|   Occurrence   |Veloc|    Full    Full
  Link                 Type          LPS  days hr:min     m/sec    Flow   Depth
  -----------------------------------------------------------------------------
  1                    CONDUIT   1113.98     0  02:30      3.42    0.39    0.43
  HS02004478WS02006287 CONDUIT    574.83     0  02:24      1.98    0.16    0.32
  HS02004479HS02004480 CONDUIT     63.79     0  02:24      0.41    0.06    0.51
  HS02004480HS02004478 CONDUIT    420.99     0  02:24      1.43    1.77    0.42
  HS02004770HS02004777 CONDUIT    142.96     0  02:23      0.42    0.26    0.49
  HS02004777HS02004785 CONDUIT    142.79     0  02:23      0.50    0.18    0.41
  HS02004785HS02004788 CONDUIT    142.91     0  02:24      0.81    1.08    0.25
  HS02004788HS02004792 CONDUIT    188.68     0  02:24      1.18    0.12    0.23
  HS02004792HS02004799 CONDUIT    326.94     0  02:23      1.09    0.20    0.43
  HS02004799HS02004480 CONDUIT    357.23     0  02:24      0.96    0.45    0.53
  HS02004802HS02004478 CONDUIT    154.71     0  02:26      0.51    0.14    0.44
  HS02004807HS02004802 CONDUIT    154.27     0  02:25      0.45    0.29    0.49
  HS02004817HS02004807 CONDUIT    117.83     0  02:26      0.24    0.07    0.71
  HS02004817HS02004824 CONDUIT    116.81     0  02:25      0.31    0.05    0.54
  HS02004824HS02004830 CONDUIT     57.51     0  02:23      0.63    0.08    0.14
  HS02004830HS02004837 CONDUIT     57.38     0  02:23      0.64    0.06    0.13
  HS02004837HS02004842 CONDUIT     17.19     0  03:01      0.41    0.01    0.34
  HS02004842HS02004848 CONDUIT     16.55     0  03:00      0.07    0.01    0.32
  HS02004848HS02004852 CONDUIT     32.25     0  02:23      0.50    0.04    0.09
  HS02004852HS02004856 CONDUIT     32.25     0  02:24      0.31    0.04    0.15
  HS02004856HS02004862 CONDUIT     47.54     0  02:24      0.56    0.05    0.12
  HS02004862HS02004870 CONDUIT     68.43     0  02:24      0.76    0.07    0.13
  HS02004870HS02004876 CONDUIT     88.82     0  02:24      0.77    0.06    0.17
  HS02004876HS02004881 CONDUIT    109.51     0  02:24      1.13    1.16    0.14
  HS02004881HS02006253 CONDUIT    141.39     0  01:44      1.89    0.03    0.54
  HS02004901HS02004770 CONDUIT     27.52     0  02:23      0.08    0.10    0.48
  WS02001211WS02001212 CONDUIT    206.53     0  03:28      0.54    0.16    0.59
  WS02001212WS02001213 CONDUIT    208.54     0  03:27      1.04    0.32    0.45
  WS02001213WS02003059 CONDUIT    214.72     0  03:26      0.47    0.35    0.78
  WS02003059WS02003060 CONDUIT    220.78     0  03:26      0.66    0.14    0.70
  WS02003060WS02003069 CONDUIT   1111.84     0  02:28      1.94    0.44    0.50
  WS02003066WSF200     CONDUIT    899.58     0  02:26      3.07    0.15    0.31
  WS02003067WS02003066 CONDUIT    899.56     0  02:26      1.61    0.29    0.49
  WS02003069WS02003072 CONDUIT   1112.13     0  02:29      1.71    0.54    0.56
  WS02003072WS02003073 CONDUIT   1112.13     0  02:29      1.83    2.40    0.53
  WS02004138WS02004139 CONDUIT    190.63     0  00:29      2.18    0.04    0.37
  WS02004139WS02001211 CONDUIT    195.07     0  03:28      0.54    0.25    0.52
  WS02004401WS02004402 CONDUIT    899.56     0  02:25      1.20    1.08    1.00
  WS02004402WS02004403 CONDUIT    899.56     0  02:25      1.21    1.29    1.00
  WS02004403WS02004404 CONDUIT    899.55     0  02:25      1.16    0.65    1.00
  WS02004404WS02004405 CONDUIT    899.71     0  02:25      1.39    8.81    1.00
  WS02004405WS02004406 CONDUIT    899.75     0  02:24      1.35    1.77    1.00
  WS02004406WS02004407 CONDUIT    899.76     0  02:25      1.55    0.40    0.69
  WS02004407WS02004409 CONDUIT    899.74     0  02:25      1.70    0.32    0.66
  WS02004409WS02004410 CONDUIT    899.61     0  02:25      1.19    1.16    0.92
  WS02004410WS02004411 CONDUIT    899.48     0  02:26      1.20    1.23    0.91
  WS02004411WS02004412 CONDUIT    899.46     0  02:26      1.22    1.28    0.89
  WS02004412WS02004413 CONDUIT    899.50     0  02:26      1.17    0.60    0.94
  WS02004413WS02003067 CONDUIT    899.52     0  02:26      1.50    0.39    0.72
  WS02006109WS02006110 CONDUIT    877.23     0  02:25      1.75    1.69    1.00
  WS02006110WS02006113 CONDUIT    877.23     0  02:25      1.82    0.80    1.00
  WS02006111WS02006112 CONDUIT    877.41     0  02:25      1.94    0.42    1.00
  WS02006112WS02006115 CONDUIT    899.55     0  02:24      1.15    0.53    1.00
  WS02006113WS02006111 CONDUIT    877.31     0  02:25      2.65    1.05    1.00
  WS02006115WS02006116 CONDUIT    899.55     0  02:25      1.18    1.15    1.00
  WS02006116WS02004401 CONDUIT    899.56     0  02:25      1.20    1.24    1.00
  WS02006228WS02006109 CONDUIT    876.00     0  02:25      1.74    3.83    1.00
  WS02006229WS02006228 CONDUIT    876.00     0  02:25      1.74    2.90    1.00
  WS02006230WS02006229 CONDUIT    492.63     0  03:20      1.28   10.96    1.00
  WS02006231WS02006230 CONDUIT    481.88     0  03:20      1.34    7.31    1.00
  WS02006232WS02006231 CONDUIT    481.84     0  03:20      1.25    1.01    1.00
  WS02006234WS02006232 CONDUIT    481.81     0  03:20      1.41    0.97    1.00
  WS02006235WS02006234 CONDUIT    481.81     0  03:20      1.25    5.08    1.00
  WS02006238WS02006235 CONDUIT    416.43     0  03:29      1.45    0.93    1.00
  WS02006239WS02006238 CONDUIT    416.40     0  03:29      1.12    1.33    1.00
  WS02006240WS02006239 CONDUIT    416.54     0  03:22      1.26    1.31    1.00
  WS02006242WS02006240 CONDUIT    416.92     0  03:22      1.14    1.66    1.00
  WS02006243WS02006242 CONDUIT    417.15     0  03:22      1.34    0.89    1.00
  WS02006245WS02006243 CONDUIT    417.29     0  03:22      1.39    1.23    1.00
  WS02006247WS02006245 CONDUIT    417.53     0  03:22      1.37    3.31    1.00
  WS02006248WS02006247 CONDUIT    417.56     0  03:22      1.38    0.91    1.00
  WS02006249WS02006248 CONDUIT    417.94     0  03:22      1.38    2.29    1.00
  WS02006251WS02006249 CONDUIT    556.29     0  01:44      1.68    1.60    1.00
  WS02006252WS02006251 CONDUIT    409.12     0  01:43     24.89    1.50    1.00
  WS02006253WS02006251 CONDUIT    344.78     0  03:29      1.19    1.03    1.00
  WS02006256WS02006235 CONDUIT    288.93     0  00:00      4.23    3.06    1.00
  WS02006280WS02006229 CONDUIT    575.07     0  02:25      3.63    0.12    0.43
  WS02006284WS02006280 CONDUIT    575.02     0  02:25      2.50    0.24    0.33
  WS02006287WS02006284 CONDUIT    574.88     0  02:25      2.27    0.27    0.36
  WSF200WS02003060     CONDUIT    899.62     0  02:26      2.13    0.20    0.41
  YS02001580YS02001583 CONDUIT      0.00     0  00:00      0.00    0.00    0.00
  YS02001583YS02001586 CONDUIT      0.00     0  00:00      0.00    0.00    0.16
  YS02001586YS02001590 CONDUIT    159.30     0  02:23      1.25    0.28    0.50
  YS02001590YS02001593 CONDUIT    158.52     0  02:25      1.02    1.00    0.68
  YS02001593YS02001596 CONDUIT    162.42     0  02:28      1.68    0.26    0.83
  YS02001596YS02001600 CONDUIT    162.64     0  02:28      1.19    0.32    1.00
  YS02001600YS02001601 CONDUIT    162.62     0  02:28      0.58    0.28    1.00
  YS02001601YS02001602 CONDUIT    393.58     0  02:24      1.39    1.42    1.00
  YS02001602YS02001605 CONDUIT    393.58     0  02:24      1.39    8.33    1.00
  YS02001605YS02001607 CONDUIT    393.57     0  02:24      1.39    2.16    1.00
  YS02001607YS02001610 CONDUIT    392.59     0  02:24      0.67    0.37    0.87
  YS02001610YS02001613 CONDUIT    391.50     0  02:24      0.56    0.45    0.86
  YS02001613YS02001616 CONDUIT    391.36     0  02:25      0.61    0.34    0.80
  YS02001616YS02001619 CONDUIT    391.94     0  02:26      0.67    0.68    0.74
  YS02001619YS02001622 CONDUIT    654.81     0  02:26      1.39    0.97    0.72
  YS02001622YS02001625 CONDUIT    655.36     0  02:26      0.91    0.35    0.86
  YS02001625YS02001629 CONDUIT    655.71     0  02:26      0.98    0.31    0.80
  YS02001629YS02163301 CONDUIT    656.89     0  02:27      0.84    0.81    0.99
  YS02001633YS02163601 CONDUIT    827.71     0  02:26      1.05    0.87    1.00
  YS02001641YS02001644 CONDUIT    828.11     0  02:25      1.09    2.68    0.93
  YS02001644YS02001647 CONDUIT    978.79     0  02:24      1.57    0.57    0.74
  YS02001647YS02001649 CONDUIT    978.45     0  02:25      2.04    0.52    0.64
  YS02001649YS02001757 CONDUIT   1114.17     0  02:26      2.21    0.68    0.76
  YS02001652YS02001649 CONDUIT    147.47     0  02:43      1.10    0.07    0.61
  YS02001655YS02001652 CONDUIT    145.04     0  02:20      1.35    0.07    0.36
  YS02001658YS02001655 CONDUIT    145.31     0  02:21      1.58    0.06    0.20
  YS02001661YS02001658 CONDUIT    145.33     0  02:21      1.71    0.06    0.17
  YS02001664YS02001661 CONDUIT    145.37     0  02:21      1.41    0.05    0.19
  YS02001745YS02001748 CONDUIT     93.54     0  01:41      1.56    0.04    0.13
  YS02001748YS02001751 CONDUIT     93.63     0  01:41      1.31    0.05    0.16
  YS02001751YS02001754 CONDUIT     96.36     0  02:40      1.34    0.05    0.31
  YS02001754YS02001757 CONDUIT    145.84     0  02:40      0.81    0.06    0.64
  YS02001757CaochengTiaoxuchi CONDUIT   1447.00     0  02:25      2.07    0.63    0.91
  YS02001759YS02001757 CONDUIT    293.03     0  02:41      1.12    0.21    0.76
  YS02001762YS02001759 CONDUIT    204.85     0  02:42      0.71    0.24    0.69
  YS02001765YS02001762 CONDUIT    188.27     0  02:42      0.79    0.18    0.66
  YS02001767YS02001765 CONDUIT    189.27     0  02:42      0.81    0.24    0.61
  YS02001770YS02001767 CONDUIT    180.42     0  01:43      0.72    0.71    0.59
  YS02001774YS02001770 CONDUIT     33.01     0  01:06      0.54    0.02    0.61
  YS02001779YS02001774 CONDUIT     20.85     0  02:47      0.15    0.01    0.53
  YS02001783YS02001784 CONDUIT    597.29     0  02:23      1.53    0.82    0.73
  YS02001784YS02001785 CONDUIT    592.41     0  02:23      1.64    1.38    0.68
  YS02001786YS02001788 CONDUIT    590.26     0  02:23      2.09    1.14    0.55
  YS02001788YS02001790 CONDUIT    589.30     0  02:24      2.17    0.43    0.53
  YS02001790YS02001791 CONDUIT    587.84     0  02:24      2.53    0.64    0.47
  YS02001791YS02001793 CONDUIT    588.02     0  02:24      5.32    0.25    0.27
  YS02001793JiankangQianchi CONDUIT    587.99     0  02:24      1.26    0.05    0.57
  YS02001882YS02001884 CONDUIT     24.78     0  01:17      0.29    0.03    0.62
  YS02001884YS02001887 CONDUIT     39.72     0  01:15      0.23    0.05    0.72
  YS02001887YS02001890 CONDUIT    148.59     0  02:23      0.25    0.25    0.77
  YS02001890YS02001895 CONDUIT    139.39     0  02:23      0.28    0.06    0.69
  YS02001895YS02001898 CONDUIT    154.33     0  02:23      0.56    0.27    0.56
  YS02001898YS02001901 CONDUIT    155.16     0  02:23      0.49    0.10    0.64
  YS02001901YS02001904 CONDUIT    143.94     0  02:22      0.48    0.22    0.70
  YS02001904YS02001907 CONDUIT    162.56     0  02:24      0.26    0.06    0.84
  YS02001907YS02006553 CONDUIT    419.01     0  02:24      0.47    0.49    1.00
  YS02001910YS02001907 CONDUIT    301.70     0  02:26      0.49    0.17    0.91
  YS02001915YS02001910 CONDUIT    303.99     0  02:23      0.93    0.15    0.70
  YS02001918YS02001915 CONDUIT    104.47     0  02:27      0.44    0.06    0.42
  YS02001920YS02001918 CONDUIT     94.74     0  02:23      0.64    0.09    0.28
  YS02001923YS02001920 CONDUIT     89.50     0  02:22      0.68    0.04    0.23
  YS02001926YS02001923 CONDUIT     89.46     0  02:22      0.74    0.13    0.21
  YS02001929YS02001926 CONDUIT     89.48     0  02:22      0.80    0.04    0.20
  YS02006553YS02006556 CONDUIT    414.21     0  02:23      0.53    0.35    0.98
  YS02006556YS02006558 CONDUIT    431.85     0  02:23      0.55    0.34    1.00
  YS02006558YS02006561 CONDUIT    636.41     0  02:25      3.02    1.41    0.71
  YS02006561YS02001783 CONDUIT    606.30     0  02:23      2.08    0.31    0.57
  YS02163301YS02001633 CONDUIT    657.68     0  02:27      0.84    0.62    1.00
  YS02163601YS02164001 CONDUIT    827.87     0  02:26      1.06    0.73    0.97
  YS02164001YS02001641 CONDUIT    827.99     0  02:25      1.08    1.13    0.94
  YSB1154YSB6556       CONDUIT     36.32     0  02:22      0.13    0.07    0.67
  YSB1171HS02004479    CONDUIT     63.77     0  02:23      0.54    0.04    0.63
  YSB1174YSB1171       CONDUIT     28.16     0  02:21      0.09    0.04    0.79
  YSB6556YSB1171       CONDUIT     36.13     0  02:24      0.11    0.04    0.78
  CC-R1                PUMP       683.00     0  00:00              1.00
  CC-R2                PUMP       683.00     0  00:00              1.00
  CC-S1                PUMP       200.00     0  00:00              1.00
  CC-S2                PUMP       200.00     0  00:00              1.00
  JK-R1                PUMP      1000.00     0  00:00              1.00
  JK-R2                PUMP      1000.00     0  00:00              1.00
  JK-S                 PUMP       300.00     0  00:00              1.00
  XR-1                 PUMP        95.00     0  00:00              1.00
  XR-2                 PUMP        95.00     0  00:00              1.00
  XR-3                 PUMP        95.00     0  00:00              1.00
  XR-4                 PUMP        95.00     0  00:00              1.00
  
  
  ***************************
  Flow Classification Summary
  ***************************
  
  -------------------------------------------------------------------------------------
                      Adjusted    ---------- Fraction of Time in Flow Class ---------- 
                       /Actual         Up    Down  Sub   Sup   Up    Down  Norm  Inlet 
  Conduit               Length    Dry  Dry   Dry   Crit  Crit  Crit  Crit  Ltd   Ctrl  
  -------------------------------------------------------------------------------------
  1                       1.00   0.00  0.00  0.00  0.00  1.00  0.00  0.00  0.39  0.00
  HS02004478WS02006287    1.00   0.10  0.00  0.00  0.46  0.44  0.00  0.00  0.60  0.00
  HS02004479HS02004480    1.00   0.04  0.00  0.00  0.96  0.00  0.00  0.00  0.10  0.00
  HS02004480HS02004478    1.00   0.09  0.00  0.00  0.39  0.00  0.00  0.52  0.00  0.00
  HS02004770HS02004777    1.00   0.00  0.09  0.00  0.91  0.00  0.00  0.00  0.01  0.00
  HS02004777HS02004785    1.00   0.00  0.00  0.00  1.00  0.00  0.00  0.00  0.10  0.00
  HS02004785HS02004788    1.00   0.00  0.00  0.00  1.00  0.00  0.00  0.00  0.00  0.00
  HS02004788HS02004792    1.00   0.00  0.00  0.00  0.99  0.01  0.00  0.00  0.98  0.00
  HS02004792HS02004799    1.00   0.00  0.00  0.00  0.99  0.01  0.00  0.00  0.98  0.00
  HS02004799HS02004480    1.00   0.00  0.04  0.00  0.90  0.00  0.06  0.00  0.00  0.00
  HS02004802HS02004478    1.00   0.09  0.00  0.00  0.91  0.00  0.00  0.00  0.02  0.00
  HS02004807HS02004802    1.00   0.09  0.00  0.00  0.91  0.00  0.00  0.01  0.00  0.00
  HS02004817HS02004807    1.00   0.00  0.09  0.00  0.91  0.00  0.00  0.00  0.01  0.00
  HS02004817HS02004824    1.00   0.00  0.00  0.00  1.00  0.00  0.00  0.00  0.89  0.00
  HS02004824HS02004830    1.00   0.00  0.00  0.00  1.00  0.00  0.00  0.00  0.01  0.00
  HS02004830HS02004837    1.00   0.00  0.00  0.00  1.00  0.00  0.00  0.00  0.99  0.00
  HS02004837HS02004842    1.00   0.00  0.00  0.00  1.00  0.00  0.00  0.00  0.11  0.00
  HS02004842HS02004848    1.00   0.00  0.09  0.00  0.91  0.00  0.00  0.00  0.55  0.00
  HS02004848HS02004852    1.00   0.09  0.00  0.00  0.91  0.00  0.00  0.00  0.81  0.00
  HS02004852HS02004856    1.00   0.09  0.00  0.00  0.91  0.00  0.00  0.00  0.69  0.00
  HS02004856HS02004862    1.00   0.00  0.10  0.00  0.90  0.00  0.00  0.00  0.85  0.00
  HS02004862HS02004870    1.00   0.00  0.00  0.00  1.00  0.00  0.00  0.00  0.02  0.00
  HS02004870HS02004876    1.00   0.00  0.00  0.00  0.98  0.01  0.00  0.00  0.95  0.00
  HS02004876HS02004881    1.00   0.02  0.00  0.00  0.66  0.32  0.00  0.00  0.00  0.00
  HS02004881HS02006253    1.00   0.03  0.02  0.00  0.41  0.01  0.00  0.53  0.25  0.00
  HS02004901HS02004770    1.00   0.09  0.00  0.00  0.91  0.00  0.00  0.00  0.00  0.00
  WS02001211WS02001212    1.00   0.00  0.03  0.00  0.97  0.00  0.00  0.00  0.00  0.00
  WS02001212WS02001213    1.00   0.03  0.00  0.00  0.44  0.00  0.53  0.00  0.00  0.00
  WS02001213WS02003059    1.00   0.00  0.00  0.00  0.99  0.00  0.00  0.00  0.00  0.00
  WS02003059WS02003060    1.00   0.00  0.00  0.00  1.00  0.00  0.00  0.00  0.03  0.00
  WS02003060WS02003069    1.00   0.00  0.00  0.00  0.99  0.01  0.00  0.00  0.55  0.00
  WS02003066WSF200        1.00   0.06  0.00  0.00  0.00  0.94  0.00  0.00  0.67  0.00
  WS02003067WS02003066    1.00   0.05  0.00  0.00  0.94  0.00  0.00  0.00  0.00  0.00
  WS02003069WS02003072    1.00   0.00  0.00  0.00  1.00  0.00  0.00  0.00  0.67  0.00
  WS02003072WS02003073    1.00   0.00  0.00  0.00  0.00  0.00  0.00  1.00  0.00  0.00
  WS02004138WS02004139    1.00   0.00  0.01  0.00  0.97  0.01  0.00  0.02  0.98  0.00
  WS02004139WS02001211    1.00   0.00  0.00  0.00  0.99  0.00  0.00  0.00  0.00  0.00
  WS02004401WS02004402    1.00   0.03  0.00  0.00  0.97  0.00  0.00  0.00  0.00  0.00
  WS02004402WS02004403    1.00   0.03  0.00  0.00  0.97  0.00  0.00  0.00  0.00  0.00
  WS02004403WS02004404    1.00   0.00  0.03  0.00  0.97  0.00  0.00  0.00  0.00  0.00
  WS02004404WS02004405    1.00   0.00  0.00  0.00  1.00  0.00  0.00  0.00  0.01  0.00
  WS02004405WS02004406    1.00   0.00  0.00  0.00  1.00  0.00  0.00  0.00  0.00  0.00
  WS02004406WS02004407    1.00   0.00  0.04  0.00  0.96  0.00  0.00  0.00  0.00  0.00
  WS02004407WS02004409    1.00   0.04  0.00  0.00  0.95  0.01  0.00  0.00  0.96  0.00
  WS02004409WS02004410    1.00   0.04  0.00  0.00  0.96  0.00  0.00  0.00  0.00  0.00
  WS02004410WS02004411    1.00   0.04  0.00  0.00  0.96  0.00  0.00  0.00  0.00  0.00
  WS02004411WS02004412    1.00   0.04  0.00  0.00  0.96  0.00  0.00  0.00  0.00  0.00
  WS02004412WS02004413    1.00   0.04  0.00  0.00  0.95  0.00  0.00  0.00  0.00  0.00
  WS02004413WS02003067    1.00   0.05  0.01  0.00  0.00  0.00  0.95  0.00  0.00  0.00
  WS02006109WS02006110    1.00   0.00  0.01  0.00  0.98  0.00  0.01  0.00  0.00  0.00
  WS02006110WS02006113    1.00   0.01  0.01  0.00  0.98  0.00  0.00  0.00  0.00  0.00
  WS02006111WS02006112    1.00   0.02  0.00  0.00  0.97  0.00  0.00  0.00  0.76  0.00
  WS02006112WS02006115    1.00   0.02  0.00  0.00  0.97  0.00  0.00  0.00  0.00  0.00
  WS02006113WS02006111    1.00   0.02  0.00  0.00  0.29  0.69  0.00  0.00  0.08  0.00
  WS02006115WS02006116    1.00   0.03  0.00  0.00  0.97  0.00  0.00  0.01  0.00  0.00
  WS02006116WS02004401    1.00   0.03  0.00  0.00  0.97  0.00  0.00  0.00  0.00  0.00
  WS02006228WS02006109    1.00   0.00  0.00  0.00  1.00  0.00  0.00  0.00  0.00  0.00
  WS02006229WS02006228    1.00   0.00  0.00  0.00  0.99  0.00  0.00  0.01  0.00  0.00
  WS02006230WS02006229    1.00   0.00  0.00  0.00  0.98  0.00  0.00  0.02  0.01  0.00
  WS02006231WS02006230    1.00   0.00  0.00  0.00  0.49  0.00  0.51  0.00  0.00  0.00
  WS02006232WS02006231    1.00   0.00  0.00  0.00  0.99  0.00  0.00  0.00  0.00  0.00
  WS02006234WS02006232    1.00   0.00  0.00  0.00  1.00  0.00  0.00  0.00  0.36  0.00
  WS02006235WS02006234    1.00   0.00  0.00  0.00  0.71  0.00  0.29  0.00  0.00  0.00
  WS02006238WS02006235    1.00   0.00  0.00  0.00  1.00  0.00  0.00  0.00  0.00  0.00
  WS02006239WS02006238    1.00   0.00  0.00  0.00  1.00  0.00  0.00  0.00  0.47  0.00
  WS02006240WS02006239    1.00   0.00  0.00  0.00  0.61  0.00  0.00  0.39  0.01  0.00
  WS02006242WS02006240    1.00   0.00  0.00  0.00  0.99  0.00  0.01  0.00  0.00  0.00
  WS02006243WS02006242    1.00   0.00  0.00  0.00  0.99  0.00  0.00  0.00  0.65  0.00
  WS02006245WS02006243    1.00   0.00  0.00  0.00  0.89  0.00  0.00  0.11  0.00  0.00
  WS02006247WS02006245    1.00   0.00  0.00  0.00  0.99  0.00  0.00  0.01  0.00  0.00
  WS02006248WS02006247    1.00   0.00  0.00  0.00  1.00  0.00  0.00  0.00  0.61  0.00
  WS02006249WS02006248    1.00   0.00  0.00  0.00  0.53  0.00  0.47  0.00  0.00  0.00
  WS02006251WS02006249    1.00   0.00  0.00  0.00  1.00  0.00  0.00  0.00  0.65  0.00
  WS02006252WS02006251    1.00   0.00  0.14  0.00  0.36  0.00  0.50  0.00  0.00  0.00
  WS02006253WS02006251    1.00   0.00  0.00  0.00  0.96  0.00  0.04  0.00  0.00  0.00
  WS02006256WS02006235    1.00   0.00  0.00  0.00  1.00  0.00  0.00  0.00  0.00  0.00
  WS02006280WS02006229    1.00   0.09  0.00  0.00  0.00  0.28  0.00  0.63  0.03  0.00
  WS02006284WS02006280    1.00   0.09  0.00  0.00  0.00  0.00  0.00  0.91  0.00  0.00
  WS02006287WS02006284    1.00   0.08  0.02  0.00  0.35  0.56  0.00  0.00  0.63  0.00
  WSF200WS02003060        1.00   0.00  0.06  0.00  0.52  0.42  0.00  0.00  0.66  0.00
  YS02001580YS02001583    1.00   1.00  0.00  0.00  0.00  0.00  0.00  0.00  0.00  0.00
  YS02001583YS02001586    1.00   0.26  0.74  0.00  0.00  0.00  0.00  0.00  0.00  0.00
  YS02001586YS02001590    1.00   0.09  0.00  0.00  0.63  0.03  0.00  0.26  0.48  0.00
  YS02001590YS02001593    1.00   0.09  0.00  0.00  0.07  0.00  0.84  0.00  0.00  0.00
  YS02001593YS02001596    1.00   0.09  0.00  0.00  0.27  0.02  0.00  0.62  0.13  0.00
  YS02001596YS02001600    1.00   0.09  0.00  0.00  0.43  0.02  0.00  0.47  0.08  0.00
  YS02001600YS02001601    1.00   0.09  0.00  0.00  0.91  0.00  0.00  0.00  0.56  0.00
  YS02001601YS02001602    1.00   0.09  0.00  0.00  0.91  0.00  0.00  0.00  0.00  0.00
  YS02001602YS02001605    1.00   0.09  0.00  0.00  0.91  0.00  0.00  0.00  0.00  0.00
  YS02001605YS02001607    1.00   0.09  0.00  0.00  0.91  0.00  0.00  0.00  0.00  0.00
  YS02001607YS02001610    1.00   0.09  0.00  0.00  0.91  0.00  0.00  0.00  0.00  0.00
  YS02001610YS02001613    1.00   0.09  0.00  0.00  0.91  0.00  0.00  0.00  0.00  0.00
  YS02001613YS02001616    1.00   0.09  0.00  0.00  0.91  0.00  0.00  0.00  0.00  0.00
  YS02001616YS02001619    1.00   0.09  0.00  0.00  0.91  0.00  0.00  0.00  0.00  0.00
  YS02001619YS02001622    1.00   0.09  0.00  0.00  0.91  0.00  0.00  0.00  0.27  0.00
  YS02001622YS02001625    1.00   0.09  0.00  0.00  0.91  0.00  0.00  0.00  0.01  0.00
  YS02001625YS02001629    1.00   0.09  0.01  0.00  0.32  0.00  0.58  0.00  0.00  0.00
  YS02001629YS02163301    1.00   0.09  0.00  0.00  0.91  0.00  0.00  0.00  0.00  0.00
  YS02001633YS02163601    1.00   0.00  0.01  0.00  0.99  0.00  0.00  0.00  0.13  0.00
  YS02001641YS02001644    1.00   0.00  0.00  0.00  0.99  0.00  0.00  0.00  0.00  0.00
  YS02001644YS02001647    1.00   0.00  0.09  0.00  0.91  0.00  0.00  0.00  0.00  0.00
  YS02001647YS02001649    1.00   0.00  0.09  0.00  0.48  0.42  0.00  0.00  0.55  0.00
  YS02001649YS02001757    1.00   0.00  0.00  0.00  0.53  0.46  0.00  0.00  0.48  0.00
  YS02001652YS02001649    1.00   0.00  0.00  0.00  0.99  0.01  0.00  0.00  0.70  0.00
  YS02001655YS02001652    1.00   0.00  0.00  0.00  0.35  0.08  0.00  0.57  0.18  0.00
  YS02001658YS02001655    1.00   0.00  0.09  0.00  0.40  0.51  0.00  0.00  0.82  0.00
  YS02001661YS02001658    1.00   0.09  0.00  0.00  0.26  0.65  0.00  0.00  0.82  0.00
  YS02001664YS02001661    1.00   0.09  0.00  0.00  0.55  0.36  0.00  0.00  0.87  0.00
  YS02001745YS02001748    1.00   0.00  0.00  0.00  0.00  0.00  0.00  1.00  0.00  0.00
  YS02001748YS02001751    1.00   0.00  0.00  0.00  0.52  0.48  0.00  0.00  0.84  0.00
  YS02001751YS02001754    1.00   0.00  0.00  0.00  0.22  0.03  0.00  0.75  0.13  0.00
  YS02001754YS02001757    1.00   0.00  0.00  0.00  1.00  0.00  0.00  0.00  0.82  0.00
  YS02001757CaochengTiaoxuchi    1.00   0.00  0.00  0.00  1.00  0.00  0.00  0.00  0.83  0.00
  YS02001759YS02001757    1.00   0.00  0.00  0.00  0.99  0.01  0.00  0.00  0.60  0.00
  YS02001762YS02001759    1.00   0.00  0.00  0.00  1.00  0.00  0.00  0.00  0.01  0.00
  YS02001765YS02001762    1.00   0.00  0.00  0.00  1.00  0.00  0.00  0.00  0.69  0.00
  YS02001767YS02001765    1.00   0.00  0.00  0.00  1.00  0.00  0.00  0.00  0.00  0.00
  YS02001770YS02001767    1.00   0.00  0.00  0.00  1.00  0.00  0.00  0.00  0.00  0.00
  YS02001774YS02001770    1.00   0.00  0.09  0.00  0.81  0.00  0.10  0.00  0.01  0.00
  YS02001779YS02001774    1.00   0.00  0.00  0.00  1.00  0.00  0.00  0.00  0.73  0.00
  YS02001783YS02001784    1.00   0.00  0.10  0.00  0.90  0.00  0.00  0.00  0.54  0.00
  YS02001784YS02001785    1.00   0.00  0.00  0.00  1.00  0.00  0.00  0.00  0.13  0.00
  YS02001786YS02001788    1.00   0.00  0.00  0.00  0.48  0.52  0.00  0.00  0.00  0.00
  YS02001788YS02001790    1.00   0.00  0.00  0.00  0.10  0.90  0.00  0.00  0.75  0.00
  YS02001790YS02001791    1.00   0.00  0.00  0.00  0.01  0.99  0.00  0.00  0.29  0.00
  YS02001791YS02001793    1.00   0.00  0.00  0.00  0.00  1.00  0.00  0.00  0.00  0.00
  YS02001793JiankangQianchi    1.00   0.00  0.00  0.00  1.00  0.00  0.00  0.00  1.00  0.00
  YS02001882YS02001884    1.00   0.09  0.00  0.00  0.91  0.00  0.00  0.00  0.00  0.00
  YS02001884YS02001887    1.00   0.06  0.03  0.00  0.92  0.00  0.00  0.00  0.00  0.00
  YS02001887YS02001890    1.00   0.00  0.00  0.00  0.96  0.00  0.03  0.00  0.00  0.00
  YS02001890YS02001895    1.00   0.00  0.09  0.00  0.91  0.00  0.00  0.00  0.00  0.00
  YS02001895YS02001898    1.00   0.09  0.00  0.00  0.90  0.00  0.00  0.00  0.00  0.00
  YS02001898YS02001901    1.00   0.09  0.00  0.00  0.91  0.00  0.00  0.00  0.00  0.00
  YS02001901YS02001904    1.00   0.09  0.00  0.00  0.91  0.00  0.00  0.00  0.00  0.00
  YS02001904YS02001907    1.00   0.00  0.09  0.00  0.91  0.00  0.00  0.00  0.00  0.00
  YS02001907YS02006553    1.00   0.00  0.02  0.00  0.97  0.00  0.00  0.00  0.00  0.00
  YS02001910YS02001907    1.00   0.00  0.00  0.00  0.97  0.00  0.00  0.03  0.11  0.00
  YS02001915YS02001910    1.00   0.00  0.00  0.00  0.98  0.02  0.00  0.00  0.11  0.00
  YS02001918YS02001915    1.00   0.00  0.00  0.00  0.97  0.02  0.00  0.00  0.70  0.00
  YS02001920YS02001918    1.00   0.00  0.00  0.00  1.00  0.00  0.00  0.00  0.00  0.00
  YS02001923YS02001920    1.00   0.00  0.00  0.00  1.00  0.00  0.00  0.00  1.00  0.00
  YS02001926YS02001923    1.00   0.00  0.06  0.00  0.00  0.00  0.94  0.00  0.00  0.00
  YS02001929YS02001926    1.00   0.00  0.09  0.00  0.91  0.00  0.00  0.00  0.87  0.00
  YS02006553YS02006556    1.00   0.01  0.00  0.00  0.99  0.00  0.00  0.00  0.03  0.00
  YS02006556YS02006558    1.00   0.00  0.00  0.00  1.00  0.00  0.00  0.00  0.00  0.00
  YS02006558YS02006561    1.00   0.10  0.00  0.00  0.00  0.90  0.00  0.00  0.22  0.00
  YS02006561YS02001783    1.00   0.10  0.00  0.00  0.00  0.90  0.00  0.00  0.67  0.00
  YS02163301YS02001633    1.00   0.00  0.09  0.00  0.91  0.00  0.00  0.00  0.00  0.00
  YS02163601YS02164001    1.00   0.00  0.07  0.00  0.93  0.00  0.00  0.00  0.00  0.00
  YS02164001YS02001641    1.00   0.01  0.06  0.00  0.93  0.00  0.00  0.00  0.05  0.00
  YSB1154YSB6556          1.00   0.09  0.00  0.00  0.91  0.00  0.00  0.00  0.01  0.00
  YSB1171HS02004479       1.00   0.04  0.00  0.00  0.95  0.00  0.00  0.01  0.09  0.00
  YSB1174YSB1171          1.00   0.05  0.02  0.00  0.93  0.00  0.00  0.00  0.00  0.00
  YSB6556YSB1171          1.00   0.04  0.04  0.00  0.91  0.00  0.00  0.00  0.00  0.00
  
  
  *************************
  Conduit Surcharge Summary
  *************************
  
  ----------------------------------------------------------------------------
                                                           Hours        Hours 
                         --------- Hours Full --------   Above Full   Capacity
  Conduit                Both Ends  Upstream  Dnstream   Normal Flow   Limited
  ----------------------------------------------------------------------------
  HS02004480HS02004478        0.01      0.01      0.01      1.53         0.01
  HS02004785HS02004788        0.01      0.01      0.01      0.22         0.01
  HS02004876HS02004881        0.01      0.01      0.01      0.49         0.01
  HS02004881HS02006253        0.01      0.01      1.82      0.01         0.01
  WS02003072WS02003073        0.01      0.01      0.01      2.25         0.01
  WS02004401WS02004402        1.62      1.62      1.67      1.40         1.40
  WS02004402WS02004403        1.67      1.67      1.68      1.61         1.61
  WS02004403WS02004404        1.68      1.68      1.77      0.01         0.01
  WS02004404WS02004405        1.74      1.77      1.74      2.97         1.74
  WS02004405WS02004406        1.73      1.74      1.73      1.92         1.73
  WS02004406WS02004407        0.01      0.01      1.73      0.01         0.01
  WS02004409WS02004410        0.01      0.01      0.01      1.49         0.01
  WS02004410WS02004411        0.01      0.01      0.01      1.56         0.01
  WS02004411WS02004412        0.01      0.01      0.01      1.60         0.01
  WS02004412WS02004413        0.01      0.01      0.53      0.01         0.01
  WS02004413WS02003067        0.01      0.01      0.53      0.01         0.01
  WS02006109WS02006110        1.90      1.90      2.10      1.91         0.01
  WS02006110WS02006113        0.18      0.18      2.09      0.01         0.01
  WS02006111WS02006112        0.08      0.08      2.19      0.01         0.01
  WS02006112WS02006115        1.50      1.50      1.94      0.01         0.01
  WS02006113WS02006111        0.14      0.18      0.14      1.11         0.14
  WS02006115WS02006116        1.52      1.52      1.52      1.48         1.47
  WS02006116WS02004401        1.61      1.61      1.62      1.56         1.56
  WS02006228WS02006109        2.08      2.10      2.08      2.43         2.08
  WS02006229WS02006228        2.07      2.08      2.07      2.19         2.07
  WS02006230WS02006229        2.13      2.14      2.13      3.03         2.12
  WS02006231WS02006230        1.76      1.76      1.89      2.78         0.01
  WS02006232WS02006231        1.88      1.88      1.95      0.03         0.01
  WS02006234WS02006232        1.91      1.91      1.95      0.01         0.01
  WS02006235WS02006234        1.90      1.90      1.92      2.64         0.01
  WS02006238WS02006235        1.92      1.92      1.94      0.01         0.01
  WS02006239WS02006238        1.92      1.93      1.93      0.24         0.17
  WS02006240WS02006239        1.90      1.91      1.91      0.24         0.16
  WS02006242WS02006240        1.90      1.90      1.92      0.46         0.01
  WS02006243WS02006242        1.89      1.89      1.91      0.01         0.01
  WS02006245WS02006243        1.88      1.88      1.88      0.24         0.14
  WS02006247WS02006245        1.87      1.87      1.87      2.10         1.83
  WS02006248WS02006247        1.85      1.85      1.87      0.01         0.01
  WS02006249WS02006248        1.85      1.85      1.85      1.46         0.01
  WS02006251WS02006249        1.85      1.85      1.85      1.87         1.76
  WS02006252WS02006251        1.95      1.95      1.96      1.89         0.01
  WS02006253WS02006251        1.85      1.85      1.85      0.01         0.01
  WS02006256WS02006235        2.70      2.71      4.47      2.12         0.01
  YS02001593YS02001596        0.01      0.01      0.24      0.01         0.01
  YS02001596YS02001600        0.61      0.61      1.41      0.01         0.01
  YS02001600YS02001601        1.46      1.46      1.99      0.01         0.01
  YS02001601YS02001602        1.71      1.71      2.02      1.44         0.01
  YS02001602YS02001605        1.56      1.56      1.71      2.56         0.01
  YS02001605YS02001607        1.52      1.56      1.52      1.97         1.52
  YS02001622YS02001625        0.01      0.01      0.07      0.01         0.01
  YS02001625YS02001629        0.01      0.01      0.07      0.01         0.01
  YS02001633YS02163601        0.16      0.16      0.30      0.01         0.01
  YS02001641YS02001644        0.01      0.01      0.01      2.01         0.01
  YS02001757CaochengTiaoxuchi        0.01      0.01      1.46      0.01         0.01
  YS02001784YS02001785        0.01      0.01      0.01      1.38         0.01
  YS02001786YS02001788        0.01      0.01      0.01      0.35         0.01
  YS02001793JiankangQianchi        0.01      0.01      7.69      0.01         0.01
  YS02001904YS02001907        0.01      0.01      0.22      0.01         0.01
  YS02001907YS02006553        1.39      1.39      1.45      0.01         0.01
  YS02001910YS02001907        0.01      0.01      0.08      0.01         0.01
  YS02006553YS02006556        0.01      0.01      0.21      0.01         0.01
  YS02006556YS02006558        0.01      0.01      0.34      0.01         0.01
  YS02006558YS02006561        0.01      0.01      0.01      1.05         0.01
  YS02163301YS02001633        0.01      0.01      0.25      0.01         0.01
  YS02163601YS02164001        0.01      0.01      0.30      0.01         0.01
  YS02164001YS02001641        0.01      0.01      0.01      0.50         0.01
  
  
  ***************
  Pumping Summary
  ***************
  
  ---------------------------------------------------------------------------------------------------------
                                                  Min       Avg       Max     Total     Power    % Time Off
                        Percent   Number of      Flow      Flow      Flow    Volume     Usage    Pump Curve
  Pump                 Utilized   Start-Ups       LPS       LPS       LPS  10^6 ltr     Kw-hr    Low   High
  ---------------------------------------------------------------------------------------------------------
  CC-R1                   21.40           2      0.00    683.00    683.00     4.209     75.91    0.0   25.3
  CC-R2                   12.89           2      0.00    683.00    683.00     2.536     45.01    0.0   42.0
  CC-S1                   26.07           2      0.00    200.00    200.00     1.501      9.49    0.0    0.0
  CC-S2                   23.60           2      0.00    200.00    200.00     1.359      8.61    0.0    0.0
  JK-R1                    4.00           6      0.00   1000.00   1000.00     1.152     10.84    0.0    0.0
  JK-R2                    0.16           1      0.00   1000.00   1000.00     0.047      0.36    0.0    0.0
  JK-S                    26.47           3      0.00    300.00    300.00     2.287     36.28    0.0    0.0
  XR-1                    97.91           2      0.00     95.00     95.00     2.679      9.62    0.0    0.0
  XR-2                    93.94           2      0.00     95.00     95.00     2.570      8.78    0.0    0.0
  XR-3                     0.00           1      0.00     95.00     95.00     0.000      0.00    0.0    0.0
  XR-4                     0.00           1      0.00     95.00     95.00     0.000      0.00    0.0    0.0
  

  Analysis begun on:  Thu Jul 20 11:19:05 2023
  Analysis ended on:  Thu Jul 20 11:19:10 2023
  Total elapsed time: 00:00:05