
  OWA STORM WATER MANAGEMENT MODEL - VERSION v5.1.14 (OWA 2022-07-31)
  --------------------------------------------------------------

  WARNING 04: minimum elevation drop used for Conduit WS02004404WS02004405
  WARNING 03: negative offset ignored for Link YS02001904YS02001907
  
  *********************************************************
  NOTE: The summary statistics displayed in this report are
  based on results found at every computational time step,  
  not just on results from each reporting time step.
  *********************************************************
  
  ****************
  Analysis Options
  ****************
  Flow Units ............... LPS
  Process Models:
    Rainfall/Runoff ........ YES
    RDII ................... NO
    Snowmelt ............... NO
    Groundwater ............ NO
    Flow Routing ........... YES
    Ponding Allowed ........ NO
    Water Quality .......... NO
  Infiltration Method ...... HORTON
  Flow Routing Method ...... DYNWAVE
  Surcharge Method ......... EXTRAN
  Starting Date ............ 08/28/2015 08:00:00
  Ending Date .............. 08/28/2015 16:00:00
  Antecedent Dry Days ...... 8.0
  Report Time Step ......... 00:01:00
  Wet Time Step ............ 00:01:00
  Dry Time Step ............ 00:01:00
  Routing Time Step ........ 30.00 sec
  Variable Time Step ....... YES
  Maximum Trials ........... 8
  Number of Threads ........ 4
  Head Tolerance ........... 0.001500 m
  
  
  **************************        Volume         Depth
  Runoff Quantity Continuity     hectare-m            mm
  **************************     ---------       -------
  Total Precipitation ......         0.513         8.469
  Evaporation Loss .........         0.000         0.000
  Infiltration Loss ........         0.114         1.886
  Surface Runoff ...........         0.338         5.582
  Final Storage ............         0.061         1.002
  Continuity Error (%) .....        -0.006
  
  
  **************************        Volume        Volume
  Flow Routing Continuity        hectare-m      10^6 ltr
  **************************     ---------     ---------
  Dry Weather Inflow .......         0.630         6.296
  Wet Weather Inflow .......         0.338         3.380
  Groundwater Inflow .......         0.000         0.000
  RDII Inflow ..............         0.000         0.000
  External Inflow ..........         0.105         1.045
  External Outflow .........         1.026        10.256
  Flooding Loss ............         0.010         0.097
  Evaporation Loss .........         0.000         0.000
  Exfiltration Loss ........         0.000         0.000
  Initial Stored Volume ....         0.303         3.031
  Final Stored Volume ......         0.342         3.421
  Continuity Error (%) .....        -0.155
  
  
  *************************
  Highest Continuity Errors
  *************************
  Node YS02001774 (27.34%)
  Node YS02001884 (23.99%)
  Node HS02004842 (20.87%)
  Node YSB1171 (4.65%)
  Node YS02001890 (4.06%)
  
  
  ***************************
  Time-Step Critical Elements
  ***************************
  Link WS02006252WS02006251 (60.45%)
  Link WS02006280WS02006229 (29.79%)
  Link WS02006238WS02006235 (4.65%)
  Link WS02004404WS02004405 (2.69%)
  Link WS02003066WSF200 (2.01%)
  
  
  ********************************
  Highest Flow Instability Indexes
  ********************************
  Link WS02006113WS02006111 (49)
  Link WS02006111WS02006112 (23)
  Link WS02006256WS02006235 (8)
  Link WS02006238WS02006235 (1)
  Link WS02006110WS02006113 (1)
  
  
  *************************
  Routing Time Step Summary
  *************************
  Minimum Time Step           :     0.00 sec
  Average Time Step           :     1.75 sec
  Maximum Time Step           :     6.46 sec
  Percent in Steady State     :    -0.00
  Average Iterations per Step :     2.04
  Percent Not Converging      :     0.18
  
  
  ***************************
  Subcatchment Runoff Summary
  ***************************
  
  ------------------------------------------------------------------------------------------------------------------------------
                            Total      Total      Total      Total     Imperv       Perv      Total       Total     Peak  Runoff
                           Precip      Runon       Evap      Infil     Runoff     Runoff     Runoff      Runoff   Runoff   Coeff
  Subcatchment                 mm         mm         mm         mm         mm         mm         mm    10^6 ltr      LPS
  ------------------------------------------------------------------------------------------------------------------------------
  sub0                       8.47       0.00       0.00       0.59       6.61       0.00       6.61        0.01     1.03   0.781
  sub1                       8.47       0.00       0.00       0.93       6.28       0.00       6.28        0.04     7.43   0.742
  sub10                      8.47       0.00       0.00       0.68       6.50       0.00       6.50        0.07    12.87   0.768
  sub11                      8.47       0.00       0.00       0.68       6.52       0.00       6.52        0.08    13.93   0.769
  sub12                      8.47       0.00       0.00       1.10       6.18       0.00       6.18        0.05    10.23   0.730
  sub14                      8.47       0.00       0.00       0.76       6.44       0.00       6.44        0.06    11.15   0.760
  sub15                      8.47       0.00       0.00       2.54       4.95       0.00       4.95        0.09    15.40   0.584
  sub16                      8.47       0.00       0.00       2.79       4.76       0.00       4.76        0.05     9.37   0.562
  sub17                      8.47       0.00       0.00       2.71       4.82       0.00       4.82        0.04     7.75   0.570
  sub2                       8.47       0.00       0.00       3.13       4.43       0.00       4.43        0.04     7.08   0.523
  sub22                      8.47       0.00       0.00       3.64       4.04       0.00       4.04        0.26    47.08   0.477
  sub23                      8.47       0.00       0.00       3.13       4.47       0.00       4.47        0.21    39.46   0.527
  sub3                       8.47       0.00       0.00       3.13       4.39       0.00       4.39        0.10    15.91   0.519
  sub4                       8.47       0.00       0.00       0.93       6.14       0.00       6.14        0.13    19.23   0.725
  sub5                       8.47       0.00       0.00       0.59       6.56       0.00       6.56        0.07    13.22   0.775
  sub60                      8.47       0.00       0.00       1.02       6.24       0.00       6.24        0.08    15.16   0.736
  sub61                      8.47       0.00       0.00       1.44       5.89       0.00       5.89        0.11    20.10   0.695
  sub62                      8.47       0.00       0.00       0.68       6.50       0.00       6.50        0.18    31.72   0.767
  sub63                      8.47       0.00       0.00       2.46       5.03       0.00       5.03        0.11    21.17   0.594
  sub64                      8.47       0.00       0.00       1.27       5.99       0.00       5.99        0.14    25.02   0.707
  sub65                      8.47       0.00       0.00       1.10       6.11       0.00       6.11        0.17    28.62   0.721
  sub66                      8.47       0.00       0.00       2.46       4.94       0.00       4.94        0.23    36.44   0.583
  sub67                      8.47       0.00       0.00       0.68       6.53       0.00       6.53        0.12    22.91   0.771
  sub68                      8.47       0.00       0.00       1.19       6.09       0.00       6.09        0.17    30.48   0.719
  sub69                      8.47       0.00       0.00       1.27       7.08       0.00       7.09        0.26    39.36   0.837
  sub7                       8.47       0.00       0.00       0.76       6.45       0.00       6.45        0.02     4.04   0.762
  sub70                      8.47       0.00       0.00       2.88       5.43       0.00       5.43        0.16    22.10   0.642
  sub71                      8.47       0.00       0.00       0.68       6.46       0.00       6.46        0.17    28.67   0.763
  sub72                      8.47       0.00       0.00       0.59       6.48       0.00       6.48        0.09    14.18   0.765
  sub8                       8.47       0.00       0.00       0.76       6.44       0.00       6.44        0.04     7.54   0.761
  sub9                       8.47       0.00       0.00       0.76       6.44       0.00       6.44        0.03     5.65   0.760
  
  
  ******************
  Node Depth Summary
  ******************
  
  ---------------------------------------------------------------------------------
                                 Average  Maximum  Maximum  Time of Max    Reported
                                   Depth    Depth      HGL   Occurrence   Max Depth
  Node                 Type       Meters   Meters   Meters  days hr:min      Meters
  ---------------------------------------------------------------------------------
  HS02004478           JUNCTION     0.06     0.12     9.35     0  02:25        0.12
  HS02004479           JUNCTION     0.12     0.23     9.43     0  02:25        0.23
  HS02004480           JUNCTION     0.08     0.19     9.43     0  02:25        0.19
  HS02004770           JUNCTION     0.12     0.21    10.04     0  02:24        0.21
  HS02004777           JUNCTION     0.15     0.24    10.04     0  02:24        0.24
  HS02004785           JUNCTION     0.05     0.13    10.03     0  02:24        0.13
  HS02004788           JUNCTION     0.03     0.07     9.97     0  02:25        0.07
  HS02004792           JUNCTION     0.03     0.09     9.62     0  02:24        0.09
  HS02004799           JUNCTION     0.12     0.25     9.46     0  02:24        0.25
  HS02004802           JUNCTION     0.16     0.24     9.37     0  02:26        0.24
  HS02004807           JUNCTION     0.12     0.20     9.37     0  02:26        0.20
  HS02004817           JUNCTION     0.43     0.53     9.37     0  02:26        0.53
  HS02004824           JUNCTION     0.02     0.04     9.45     0  02:26        0.04
  HS02004830           JUNCTION     0.04     0.06     9.53     0  02:25        0.06
  HS02004837           JUNCTION     0.03     0.05     9.63     0  02:25        0.05
  HS02004842           JUNCTION     0.33     0.36     9.63     0  02:25        0.36
  HS02004848           JUNCTION     0.01     0.03     9.63     0  02:25        0.03
  HS02004852           JUNCTION     0.01     0.03     9.54     0  02:26        0.03
  HS02004856           JUNCTION     0.08     0.11     9.53     0  02:25        0.11
  HS02004862           JUNCTION     0.02     0.05     9.43     0  02:26        0.05
  HS02004870           JUNCTION     0.02     0.04     9.33     0  02:25        0.04
  HS02004876           JUNCTION     0.05     0.10     9.13     0  02:24        0.10
  HS02004881           JUNCTION     0.01     0.02     9.05     0  02:25        0.02
  HS02004901           JUNCTION     0.13     0.22    10.04     0  02:24        0.22
  WS02001211           JUNCTION     0.60     0.63     5.47     0  03:41        0.63
  WS02001212           JUNCTION     0.34     0.37     5.43     0  03:40        0.37
  WS02001213           JUNCTION     0.55     0.63     5.39     0  03:39        0.63
  WS02003059           JUNCTION     0.61     0.69     5.38     0  03:39        0.69
  WS02003060           JUNCTION     0.33     0.42     5.36     0  03:38        0.42
  WS02003066           JUNCTION     0.20     0.28     5.83     0  03:37        0.28
  WS02003067           JUNCTION     0.51     0.67     5.99     0  03:37        0.67
  WS02003069           JUNCTION     0.37     0.48     5.06     0  03:39        0.48
  WS02003072           JUNCTION     0.43     0.54     4.91     0  03:39        0.54
  WS02003073           JUNCTION     0.26     0.33     4.39     0  03:40        0.33
  WS02004138           JUNCTION     0.13     0.14     7.39     0  00:29        0.14
  WS02004139           JUNCTION     0.54     0.57     5.48     0  03:41        0.57
  WS02004401           JUNCTION     0.58     0.80     6.80     0  03:34        0.80
  WS02004402           JUNCTION     0.61     0.82     6.78     0  03:35        0.82
  WS02004403           JUNCTION     0.64     0.84     6.77     0  03:35        0.84
  WS02004404           JUNCTION     0.71     0.92     6.77     0  03:35        0.92
  WS02004405           JUNCTION     0.71     0.91     6.76     0  03:35        0.91
  WS02004406           JUNCTION     0.72     0.92     6.75     0  03:35        0.92
  WS02004407           JUNCTION     0.18     0.28     6.59     0  03:35        0.28
  WS02004409           JUNCTION     0.39     0.61     6.38     0  03:36        0.61
  WS02004410           JUNCTION     0.42     0.63     6.35     0  03:36        0.63
  WS02004411           JUNCTION     0.44     0.64     6.32     0  03:36        0.64
  WS02004412           JUNCTION     0.46     0.65     6.29     0  03:37        0.65
  WS02004413           JUNCTION     0.62     0.81     6.28     0  03:37        0.81
  WS02006109           JUNCTION     0.63     0.90     7.52     0  03:33        0.90
  WS02006110           JUNCTION     0.64     0.87     7.46     0  03:33        0.87
  WS02006111           JUNCTION     0.17     0.27     6.98     0  03:34        0.27
  WS02006112           JUNCTION     0.73     0.98     6.86     0  03:34        0.98
  WS02006113           JUNCTION     0.26     0.42     7.32     0  03:33        0.42
  WS02006115           JUNCTION     0.46     0.69     6.83     0  03:34        0.69
  WS02006116           JUNCTION     0.55     0.77     6.81     0  03:34        0.77
  WS02006228           JUNCTION     0.62     0.92     7.57     0  03:33        0.92
  WS02006229           JUNCTION     0.59     0.91     7.60     0  03:33        0.91
  WS02006230           JUNCTION     0.56     0.95     7.69     0  03:33        0.95
  WS02006231           JUNCTION     0.32     0.65     7.78     0  03:33        0.65
  WS02006232           JUNCTION     0.44     0.80     7.84     0  03:33        0.80
  WS02006234           JUNCTION     0.34     0.77     7.93     0  03:33        0.77
  WS02006235           JUNCTION     0.37     0.82     7.98     0  03:33        0.82
  WS02006238           JUNCTION     0.39     0.84     7.99     0  03:33        0.84
  WS02006239           JUNCTION     0.35     0.79     8.00     0  03:33        0.79
  WS02006240           JUNCTION     0.32     0.73     8.02     0  03:33        0.72
  WS02006242           JUNCTION     0.38     0.77     8.04     0  03:33        0.77
  WS02006243           JUNCTION     0.28     0.64     8.06     0  03:33        0.63
  WS02006245           JUNCTION     0.28     0.59     8.08     0  00:08        0.59
  WS02006247           JUNCTION     0.30     0.63     8.13     0  00:08        0.62
  WS02006248           JUNCTION     0.26     0.58     8.17     0  00:08        0.58
  WS02006249           JUNCTION     0.30     0.62     8.22     0  00:08        0.62
  WS02006251           JUNCTION     0.28     0.63     8.30     0  00:07        0.63
  WS02006252           JUNCTION     0.23     1.50     9.74     0  00:00        0.58
  WS02006253           JUNCTION     0.31     0.66     8.30     0  00:08        0.66
  WS02006256           JUNCTION     0.73     2.35     9.28     0  00:00        2.35
  WS02006280           JUNCTION     0.07     0.14     8.41     0  02:26        0.14
  WS02006284           JUNCTION     0.36     0.48     8.88     0  02:26        0.48
  WS02006287           JUNCTION     0.10     0.21     9.16     0  02:26        0.21
  WSF200               JUNCTION     0.17     0.28     5.51     0  03:37        0.28
  YS02001580           JUNCTION     0.00     0.00     8.54     0  00:00        0.00
  YS02001583           JUNCTION     0.00     0.00     8.50     0  00:00        0.00
  YS02001586           JUNCTION     0.04     0.08     8.25     0  02:24        0.08
  YS02001590           JUNCTION     0.10     0.17     8.03     0  02:25        0.17
  YS02001593           JUNCTION     0.04     0.08     7.94     0  02:26        0.08
  YS02001596           JUNCTION     0.04     0.08     7.50     0  02:26        0.08
  YS02001600           JUNCTION     0.04     0.09     7.22     0  02:27        0.09
  YS02001601           JUNCTION     0.23     0.39     7.23     0  02:27        0.39
  YS02001602           JUNCTION     0.17     0.32     7.22     0  02:27        0.32
  YS02001605           JUNCTION     0.16     0.30     7.20     0  02:28        0.30
  YS02001607           JUNCTION     0.21     0.34     7.19     0  02:29        0.34
  YS02001610           JUNCTION     0.25     0.39     7.19     0  02:29        0.39
  YS02001613           JUNCTION     0.21     0.34     7.18     0  02:29        0.34
  YS02001616           JUNCTION     0.14     0.26     7.17     0  02:29        0.26
  YS02001619           JUNCTION     0.12     0.23     7.16     0  02:29        0.23
  YS02001622           JUNCTION     0.11     0.20     7.11     0  02:31        0.20
  YS02001625           JUNCTION     0.39     0.51     7.11     0  02:31        0.51
  YS02001629           JUNCTION     0.19     0.35     6.90     0  02:32        0.35
  YS02001633           JUNCTION     0.28     0.44     6.90     0  02:32        0.44
  YS02001641           JUNCTION     0.29     0.45     6.88     0  02:32        0.45
  YS02001644           JUNCTION     0.29     0.45     6.88     0  02:32        0.45
  YS02001647           JUNCTION     0.09     0.19     6.80     0  02:32        0.19
  YS02001649           JUNCTION     0.11     0.21     6.60     0  02:31        0.21
  YS02001652           JUNCTION     0.03     0.07     6.67     0  02:23        0.07
  YS02001655           JUNCTION     0.03     0.07     6.92     0  02:23        0.07
  YS02001658           JUNCTION     0.02     0.07     7.21     0  02:22        0.07
  YS02001661           JUNCTION     0.09     0.13     7.54     0  02:22        0.13
  YS02001664           JUNCTION     0.02     0.06     7.98     0  02:22        0.06
  YS02001745           JUNCTION     0.02     0.05     7.57     0  02:22        0.05
  YS02001748           JUNCTION     0.02     0.06     7.14     0  02:22        0.06
  YS02001751           JUNCTION     0.02     0.06     6.94     0  02:23        0.06
  YS02001754           JUNCTION     0.02     0.06     6.66     0  02:23        0.06
  YS02001757           JUNCTION     0.10     0.21     6.47     0  02:28        0.21
  YS02001759           JUNCTION     0.06     0.13     6.49     0  02:24        0.13
  YS02001762           JUNCTION     0.06     0.13     6.53     0  02:26        0.13
  YS02001765           JUNCTION     0.06     0.12     6.57     0  02:26        0.12
  YS02001767           JUNCTION     0.06     0.14     6.62     0  02:25        0.14
  YS02001770           JUNCTION     0.08     0.17     6.67     0  02:24        0.17
  YS02001774           JUNCTION     0.15     0.24     6.67     0  02:24        0.24
  YS02001779           JUNCTION     0.00     0.00     6.69     0  00:02        0.00
  YS02001783           JUNCTION     0.10     0.20     6.35     0  02:29        0.20
  YS02001784           JUNCTION     0.12     0.24     6.31     0  02:30        0.24
  YS02001786           JUNCTION     0.11     0.20     6.23     0  02:30        0.20
  YS02001788           JUNCTION     0.07     0.14     6.12     0  02:30        0.14
  YS02001790           JUNCTION     0.09     0.18     5.82     0  02:31        0.18
  YS02001791           JUNCTION     0.06     0.12     5.59     0  02:31        0.12
  YS02001793           JUNCTION     0.03     0.06     4.89     0  02:31        0.06
  YS02001882           JUNCTION     0.14     0.25     6.96     0  02:28        0.25
  YS02001884           JUNCTION     0.23     0.34     6.96     0  02:28        0.34
  YS02001887           JUNCTION     0.31     0.42     6.96     0  02:28        0.42
  YS02001890           JUNCTION     0.34     0.45     6.96     0  02:28        0.45
  YS02001895           JUNCTION     0.11     0.21     6.96     0  02:28        0.21
  YS02001898           JUNCTION     0.12     0.22     6.96     0  02:27        0.22
  YS02001901           JUNCTION     0.24     0.35     6.96     0  02:26        0.35
  YS02001904           JUNCTION     0.22     0.33     6.96     0  02:29        0.33
  YS02001907           JUNCTION     0.54     0.67     6.96     0  02:28        0.67
  YS02001910           JUNCTION     0.33     0.45     6.96     0  02:28        0.45
  YS02001915           JUNCTION     0.14     0.24     6.95     0  02:28        0.24
  YS02001918           JUNCTION     0.04     0.07     7.13     0  02:29        0.07
  YS02001920           JUNCTION     0.12     0.16     7.17     0  02:28        0.16
  YS02001923           JUNCTION     0.03     0.06     7.32     0  02:27        0.06
  YS02001926           JUNCTION     0.08     0.13     7.57     0  02:27        0.13
  YS02001929           JUNCTION     0.03     0.06     7.75     0  02:25        0.06
  YS02006553           JUNCTION     0.55     0.67     6.96     0  02:29        0.67
  YS02006556           JUNCTION     0.52     0.64     6.95     0  02:29        0.64
  YS02006558           JUNCTION     0.56     0.69     6.95     0  02:29        0.69
  YS02006561           JUNCTION     0.06     0.12     6.78     0  02:29        0.12
  YS02163301           JUNCTION     0.22     0.38     6.90     0  02:32        0.38
  YS02163601           JUNCTION     0.33     0.49     6.89     0  02:32        0.49
  YS02164001           JUNCTION     0.27     0.43     6.89     0  02:32        0.43
  YSB1154              JUNCTION     0.26     0.38     9.43     0  02:25        0.38
  YSB1171              JUNCTION     0.40     0.53     9.43     0  02:24        0.53
  YSB1174              JUNCTION     0.21     0.32     9.43     0  02:25        0.32
  YSB6556              JUNCTION     0.15     0.26     9.43     0  02:24        0.26
  CC-1                 OUTFALL      0.00     0.00     0.00     0  00:00        0.00
  CC-2                 OUTFALL      0.00     0.00     0.00     0  00:00        0.00
  JK-1                 OUTFALL      0.00     0.00     0.00     0  00:00        0.00
  JK-2                 OUTFALL      0.00     0.00     0.00     0  00:00        0.00
  WSC                  OUTFALL      0.26     0.33     1.00     0  03:40        0.33
  CC-storage           STORAGE      0.64     0.80     6.30     0  03:04        0.80
  JK-storage           STORAGE      2.24     4.00     4.80     0  02:30        3.97
  XR-storage           STORAGE      7.96     9.26     7.26     0  08:00        9.26
  
  
  *******************
  Node Inflow Summary
  *******************
  
  -------------------------------------------------------------------------------------------------
                                  Maximum  Maximum                  Lateral       Total        Flow
                                  Lateral    Total  Time of Max      Inflow      Inflow     Balance
                                   Inflow   Inflow   Occurrence      Volume      Volume       Error
  Node                 Type           LPS      LPS  days hr:min    10^6 ltr    10^6 ltr     Percent
  -------------------------------------------------------------------------------------------------
  HS02004478           JUNCTION      0.00   204.70     0  02:25           0        1.32       0.031
  HS02004479           JUNCTION      0.00    23.10     0  02:26           0       0.137       0.535
  HS02004480           JUNCTION      0.00   146.06     0  02:24           0       0.839       0.126
  HS02004770           JUNCTION     39.46    48.64     0  02:22       0.213       0.261       1.199
  HS02004777           JUNCTION      0.03    48.40     0  02:23    0.000864        0.26       2.034
  HS02004785           JUNCTION      0.15    48.39     0  02:24     0.00432        0.26       0.185
  HS02004788           JUNCTION     17.07    65.26     0  02:24       0.133       0.391       0.101
  HS02004792           JUNCTION     47.36   112.13     0  02:23       0.263       0.653       0.063
  HS02004799           JUNCTION     11.15   123.21     0  02:24      0.0613       0.714       0.358
  HS02004802           JUNCTION      0.00    59.00     0  02:27           0       0.495       0.804
  HS02004807           JUNCTION     13.93    58.94     0  02:26      0.0757       0.498       0.876
  HS02004817           JUNCTION      0.60    45.51     0  02:26      0.0173       0.439       3.944
  HS02004824           JUNCTION     19.28    44.91     0  02:26       0.129       0.422       0.128
  HS02004830           JUNCTION      0.15    25.80     0  02:25     0.00432       0.294       0.421
  HS02004837           JUNCTION     19.22    25.66     0  02:24       0.255       0.304       0.268
  HS02004842           JUNCTION      0.00     6.79     0  02:50           0      0.0623      26.382
  HS02004848           JUNCTION     15.91    15.91     0  02:25      0.0989      0.0989       0.045
  HS02004852           JUNCTION      0.00     9.33     0  02:25           0      0.0496       0.105
  HS02004856           JUNCTION      5.65    14.85     0  02:25       0.031      0.0805       1.823
  HS02004862           JUNCTION      7.28    22.06     0  02:25       0.047       0.126       0.134
  HS02004870           JUNCTION      7.54    29.42     0  02:25      0.0412       0.167       0.064
  HS02004876           JUNCTION      7.43    36.76     0  02:25      0.0418       0.209       0.254
  HS02004881           JUNCTION      4.04    40.76     0  02:25      0.0217        0.23       0.124
  HS02004901           JUNCTION      9.37     9.37     0  02:22      0.0498      0.0501       3.639
  WS02001211           JUNCTION      7.35   199.04     0  02:59       0.212        5.44       0.612
  WS02001212           JUNCTION      0.00   200.63     0  03:00           0        5.41       0.290
  WS02001213           JUNCTION      0.00   202.02     0  02:59           0        5.39       0.332
  WS02003059           JUNCTION      0.00   205.16     0  02:58           0        5.38       0.594
  WS02003060           JUNCTION     16.53   664.95     0  03:38       0.476        9.51       0.154
  WS02003066           JUNCTION      0.00   459.77     0  03:37           0        3.69       0.038
  WS02003067           JUNCTION      0.00   459.60     0  03:37           0        3.69       0.116
  WS02003069           JUNCTION      0.32   664.85     0  03:38     0.00922         9.5       0.160
  WS02003072           JUNCTION      0.00   664.15     0  03:39           0        9.49       0.219
  WS02003073           JUNCTION      1.82   665.58     0  03:39      0.0524        9.52       0.226
  WS02004138           JUNCTION      0.00   380.00     0  00:00           0        5.25       0.052
  WS02004139           JUNCTION      0.32   190.95     0  00:29     0.00924        5.26       0.508
  WS02004401           JUNCTION      0.00   470.12     0  03:34           0         3.8       0.281
  WS02004402           JUNCTION      0.00   469.09     0  03:34           0        3.79       0.283
  WS02004403           JUNCTION      0.00   468.36     0  03:35           0        3.78       0.277
  WS02004404           JUNCTION      0.16   468.06     0  03:35     0.00467        3.77       0.232
  WS02004405           JUNCTION      0.04   467.89     0  03:35      0.0011        3.76       0.336
  WS02004406           JUNCTION      0.00   467.70     0  03:35           0        3.75       0.572
  WS02004407           JUNCTION      0.00   467.33     0  03:35           0        3.73       0.037
  WS02004409           JUNCTION      0.00   467.01     0  03:35           0        3.73       0.079
  WS02004410           JUNCTION      0.00   465.03     0  03:36           0        3.73       0.127
  WS02004411           JUNCTION      0.00   463.20     0  03:36           0        3.72       0.160
  WS02004412           JUNCTION      0.00   461.80     0  03:36           0        3.72       0.211
  WS02004413           JUNCTION      0.00   460.59     0  03:37           0        3.71       0.376
  WS02006109           JUNCTION      1.23   474.11     0  03:33      0.0354        3.81       0.298
  WS02006110           JUNCTION      0.00   474.12     0  03:33           0         3.8       0.199
  WS02006111           JUNCTION      0.00   488.62     0  03:34           0        3.79       0.032
  WS02006112           JUNCTION      7.75   476.35     0  03:34      0.0414        3.83       0.528
  WS02006113           JUNCTION      0.00   474.06     0  03:33           0        3.79       0.050
  WS02006115           JUNCTION      0.00   473.41     0  03:34           0        3.81       0.187
  WS02006116           JUNCTION      0.00   471.45     0  03:34           0         3.8       0.129
  WS02006228           JUNCTION      0.00   472.81     0  03:33           0        3.78       0.124
  WS02006229           JUNCTION      0.00   473.03     0  03:33           0        3.79       0.173
  WS02006230           JUNCTION     10.28   420.82     0  03:33       0.296        2.48       0.407
  WS02006231           JUNCTION      0.00   411.54     0  03:33           0        2.18      -0.257
  WS02006232           JUNCTION      0.00   411.54     0  03:33           0        2.18       0.205
  WS02006234           JUNCTION      0.00   411.77     0  03:33           0        2.18      -0.153
  WS02006235           JUNCTION      0.00   474.24     0  03:22           0        2.21       0.215
  WS02006238           JUNCTION      0.00   352.56     0  00:09           0        1.83      -0.210
  WS02006239           JUNCTION      0.00   356.81     0  00:08           0        1.81      -0.269
  WS02006240           JUNCTION      0.00   368.66     0  00:08           0        1.79      -0.004
  WS02006242           JUNCTION      0.00   376.40     0  00:08           0        1.78      -0.016
  WS02006243           JUNCTION      0.00   382.00     0  00:08           0        1.78      -0.059
  WS02006245           JUNCTION      0.00   386.19     0  00:07           0        1.79       0.375
  WS02006247           JUNCTION      0.00   389.15     0  00:05           0        1.79       0.016
  WS02006248           JUNCTION      0.00   393.07     0  00:08           0        1.79       0.007
  WS02006249           JUNCTION      0.00   400.45     0  00:02           0        1.79       0.285
  WS02006251           JUNCTION      0.08   456.89     0  00:01     0.00222        1.81      -0.019
  WS02006252           JUNCTION      0.00   400.00     0  00:00           0        1.55      -0.020
  WS02006253           JUNCTION      1.03   197.53     0  00:00     0.00535       0.249       0.147
  WS02006256           JUNCTION      0.00   300.00     0  00:00           0       0.489      -0.491
  WS02006280           JUNCTION      0.00   204.82     0  02:26           0        1.32       0.005
  WS02006284           JUNCTION      0.10   204.81     0  02:26     0.00275        1.32       0.086
  WS02006287           JUNCTION      0.00   204.70     0  02:26           0        1.32       0.053
  WSF200               JUNCTION      0.00   459.69     0  03:37           0        3.69       0.021
  YS02001580           JUNCTION      0.00     0.00     0  00:00           0           0       0.000 ltr
  YS02001583           JUNCTION      0.00     0.00     0  00:00           0           0       0.000 ltr
  YS02001586           JUNCTION     22.10    22.10     0  02:24       0.157       0.157       0.038
  YS02001590           JUNCTION      0.00    22.09     0  02:24           0       0.157       0.067
  YS02001593           JUNCTION      0.00    22.06     0  02:25           0       0.157       0.018
  YS02001596           JUNCTION      0.00    22.06     0  02:26           0       0.157       0.019
  YS02001600           JUNCTION      0.00    22.06     0  02:26           0       0.157       0.020
  YS02001601           JUNCTION     39.36    61.09     0  02:24       0.262       0.419       0.230
  YS02001602           JUNCTION      0.00    60.88     0  02:24           0       0.418       0.117
  YS02001605           JUNCTION      0.00    60.68     0  02:25           0       0.417       0.136
  YS02001607           JUNCTION      0.00    60.42     0  02:26           0       0.417       0.482
  YS02001610           JUNCTION      0.00    60.18     0  02:27           0       0.415       0.577
  YS02001613           JUNCTION      0.00    60.03     0  02:28           0       0.413       0.416
  YS02001616           JUNCTION      0.00    59.98     0  02:29           0       0.413       0.112
  YS02001619           JUNCTION     36.44    96.04     0  02:28        0.23       0.642       0.016
  YS02001622           JUNCTION      0.00    95.97     0  02:28           0        0.64       0.044
  YS02001625           JUNCTION      0.00    95.89     0  02:29           0        0.64       1.523
  YS02001629           JUNCTION      0.00    95.76     0  02:31           0       0.631       0.073
  YS02001633           JUNCTION     28.82   123.26     0  02:30       0.174       0.803       0.446
  YS02001641           JUNCTION      0.00   123.25     0  02:33           0         0.8       0.361
  YS02001644           JUNCTION     25.06   146.71     0  02:32       0.145        0.94       0.364
  YS02001647           JUNCTION      0.00   146.70     0  02:32           0       0.933       0.037
  YS02001649           JUNCTION      0.00   166.01     0  02:30           0        1.05       0.030
  YS02001652           JUNCTION      0.00    21.30     0  02:23           0       0.118      -0.066
  YS02001655           JUNCTION      0.15    21.31     0  02:22     0.00443       0.118       0.026
  YS02001658           JUNCTION      0.00    21.16     0  02:22           0       0.114       0.001
  YS02001661           JUNCTION      0.00    21.17     0  02:22           0       0.114       0.290
  YS02001664           JUNCTION     21.17    21.17     0  02:22       0.114       0.114      -0.027
  YS02001745           JUNCTION     15.17    15.17     0  02:22       0.082       0.082      -0.001
  YS02001748           JUNCTION      0.04    15.20     0  02:22      0.0013      0.0833       0.001
  YS02001751           JUNCTION      0.01    15.22     0  02:22    0.000317      0.0837       0.015
  YS02001754           JUNCTION      0.26    15.47     0  02:23     0.00749      0.0911      -0.044
  YS02001757           JUNCTION      0.00   231.01     0  02:28           0        1.45       0.084
  YS02001759           JUNCTION     20.14    51.72     0  02:24       0.109       0.305       0.002
  YS02001762           JUNCTION      0.00    32.16     0  02:26           0       0.196       0.077
  YS02001765           JUNCTION      0.00    32.17     0  02:25           0       0.196       0.059
  YS02001767           JUNCTION      0.54    32.21     0  02:24      0.0154       0.197       0.109
  YS02001770           JUNCTION     31.87    31.87     0  02:23       0.182       0.185       0.036
  YS02001774           JUNCTION      0.00     2.44     0  01:37           0     0.00426      37.636
  YS02001779           JUNCTION      0.01     0.01     0  00:00    0.000144    0.000144       0.297
  YS02001783           JUNCTION      0.00    96.17     0  02:29           0       0.598       0.048
  YS02001784           JUNCTION      1.06    97.17     0  02:30      0.0305       0.628       0.086
  YS02001786           JUNCTION      0.06    97.13     0  02:30     0.00162       0.629       0.108
  YS02001788           JUNCTION      0.07    97.17     0  02:30     0.00204       0.631       0.046
  YS02001790           JUNCTION      0.15    97.31     0  02:31     0.00446       0.635       0.064
  YS02001791           JUNCTION      0.00    97.30     0  02:31           0       0.634       0.031
  YS02001793           JUNCTION      0.00    97.29     0  02:31           0       0.634       0.023
  YS02001882           JUNCTION      0.00     1.87     0  01:51           0     0.00264      31.397
  YS02001884           JUNCTION      0.00     5.65     0  01:52           0      0.0105      31.562
  YS02001887           JUNCTION     23.36    23.36     0  02:22       0.134        0.14       3.341
  YS02001890           JUNCTION      0.00    22.70     0  02:23           0       0.127       4.232
  YS02001895           JUNCTION      0.00    22.03     0  02:26           0       0.122       1.051
  YS02001898           JUNCTION      0.00    22.07     0  02:25           0        0.12       0.491
  YS02001901           JUNCTION      0.00    22.79     0  02:27           0       0.122       2.661
  YS02001904           JUNCTION      0.00    22.07     0  02:31           0       0.125       2.412
  YS02001907           JUNCTION      0.00    66.93     0  02:30           0       0.457       4.106
  YS02001910           JUNCTION      0.00    46.56     0  02:25           0        0.34       2.145
  YS02001915           JUNCTION     28.69    45.37     0  02:25       0.169       0.342       0.506
  YS02001918           JUNCTION      0.00    17.07     0  02:28           0       0.173       0.179
  YS02001920           JUNCTION      2.87    17.09     0  02:27      0.0827       0.174       0.602
  YS02001923           JUNCTION      0.04    14.22     0  02:27     0.00109      0.0914       0.025
  YS02001926           JUNCTION      0.05    14.23     0  02:25      0.0015      0.0905       0.273
  YS02001929           JUNCTION     14.18    14.18     0  02:25       0.089       0.089       0.000
  YS02006553           JUNCTION      0.00    67.14     0  02:30           0       0.446       2.727
  YS02006556           JUNCTION      0.00    67.32     0  02:30           0       0.451       1.875
  YS02006558           JUNCTION     31.36    96.28     0  02:28       0.193       0.623       0.556
  YS02006561           JUNCTION      0.00    96.19     0  02:29           0       0.598       0.019
  YS02163301           JUNCTION      0.00    95.75     0  02:31           0       0.631       0.261
  YS02163601           JUNCTION      0.11   123.26     0  02:31     0.00317       0.802       0.628
  YS02164001           JUNCTION      0.00   123.23     0  02:32           0       0.799       0.311
  YSB1154              JUNCTION     13.22    13.22     0  02:23      0.0743      0.0752       1.960
  YSB1171              JUNCTION      0.00    23.07     0  02:24           0       0.136       4.881
  YSB1174              JUNCTION     10.23    10.23     0  02:21       0.054      0.0546       2.410
  YSB6556              JUNCTION      0.00    13.15     0  02:24           0       0.076       1.668
  CC-1                 OUTFALL       0.00   683.00     0  00:00           0       0.332       0.000
  CC-2                 OUTFALL       0.00   683.00     0  00:00           0       0.332       0.000
  JK-1                 OUTFALL       0.00  1000.00     0  00:00           0      0.0484       0.000
  JK-2                 OUTFALL       0.00  1000.00     0  00:00           0      0.0484       0.000
  WSC                  OUTFALL       0.00   664.84     0  03:40           0         9.5       0.000
  CC-storage           STORAGE       0.00   230.89     0  02:28           0        3.68      -0.471
  JK-storage           STORAGE       0.00    97.29     0  02:31           0       0.785       0.933
  XR-storage           STORAGE     200.00   200.00     0  00:00        5.76        6.36       0.001
  
  
  **********************
  Node Surcharge Summary
  **********************
  
  Surcharging occurs when water rises above the top of the highest conduit.
  ---------------------------------------------------------------------
                                               Max. Height   Min. Depth
                                   Hours       Above Crown    Below Rim
  Node                 Type      Surcharged         Meters       Meters
  ---------------------------------------------------------------------
  WS02006109           JUNCTION        0.37          0.079        1.741
  WS02006228           JUNCTION        0.35          0.092        2.108
  WS02006232           JUNCTION        0.16          0.105        1.375
  WS02006234           JUNCTION        0.09          0.049        1.191
  WS02006235           JUNCTION        0.13          0.109        1.181
  WS02006238           JUNCTION        0.13          0.122        1.308
  WS02006239           JUNCTION        0.08          0.054        1.236
  WS02006240           JUNCTION        0.03          0.017        1.373
  WS02006242           JUNCTION        0.06          0.040        0.780
  WS02006252           JUNCTION        0.14          1.100        0.000
  WS02006256           JUNCTION        4.34          2.050        0.000
  
  
  *********************
  Node Flooding Summary
  *********************
  
  Flooding refers to all water that overflows a node, whether it ponds or not.
  --------------------------------------------------------------------------
                                                             Total   Maximum
                                 Maximum   Time of Max       Flood    Ponded
                        Hours       Rate    Occurrence      Volume     Depth
  Node                 Flooded       LPS   days hr:min    10^6 ltr    Meters
  --------------------------------------------------------------------------
  WS02006252              0.01    245.63      0  00:00       0.000     0.000
  WS02006256              0.45    293.19      0  00:00       0.096     0.000
  
  
  **********************
  Storage Volume Summary
  **********************
  
  --------------------------------------------------------------------------------------------------
                         Average     Avg  Evap Exfil       Maximum     Max    Time of Max    Maximum
                          Volume    Pcnt  Pcnt  Pcnt        Volume    Pcnt     Occurrence    Outflow
  Storage Unit           1000 m3    Full  Loss  Loss       1000 m3    Full    days hr:min        LPS
  --------------------------------------------------------------------------------------------------
  CC-storage               1.777      28     0     0         2.236      35       0  03:04    1783.53
  JK-storage               0.113      39     0     0         0.201      69       0  02:30    2300.00
  XR-storage               0.956      66     0     0         1.111      77       0  08:00     380.00
  
  
  ***********************
  Outfall Loading Summary
  ***********************
  
  -----------------------------------------------------------
                         Flow       Avg       Max       Total
                         Freq      Flow      Flow      Volume
  Outfall Node           Pcnt       LPS       LPS    10^6 ltr
  -----------------------------------------------------------
  CC-1                   1.12    683.00    683.00       0.332
  CC-2                   1.12    683.00    683.00       0.332
  JK-1                   0.13   1000.00   1000.00       0.048
  JK-2                   0.13   1000.00   1000.00       0.048
  WSC                   99.96    432.34    664.84       9.495
  -----------------------------------------------------------
  System                20.49   3798.34    664.84      10.256
  
  
  ********************
  Link Flow Summary
  ********************
  
  -----------------------------------------------------------------------------
                                 Maximum  Time of Max   Maximum    Max/    Max/
                                  |Flow|   Occurrence   |Veloc|    Full    Full
  Link                 Type          LPS  days hr:min     m/sec    Flow   Depth
  -----------------------------------------------------------------------------
  1                    CONDUIT    664.84     0  03:40      2.97    0.23    0.33
  HS02004478WS02006287 CONDUIT    204.70     0  02:26      1.31    0.06    0.17
  HS02004479HS02004480 CONDUIT     23.23     0  02:27      0.27    0.02    0.30
  HS02004480HS02004478 CONDUIT    146.06     0  02:25      0.94    0.62    0.22
  HS02004770HS02004777 CONDUIT     48.37     0  02:23      0.21    0.09    0.33
  HS02004777HS02004785 CONDUIT     48.24     0  02:24      0.26    0.06    0.26
  HS02004785HS02004788 CONDUIT     48.34     0  02:25      0.49    0.36    0.14
  HS02004788HS02004792 CONDUIT     65.23     0  02:25      0.81    0.04    0.11
  HS02004792HS02004799 CONDUIT    112.11     0  02:24      0.66    0.07    0.24
  HS02004799HS02004480 CONDUIT    123.11     0  02:24      0.58    0.16    0.31
  HS02004802HS02004478 CONDUIT     59.19     0  02:28      0.33    0.05    0.26
  HS02004807HS02004802 CONDUIT     59.00     0  02:27      0.28    0.11    0.31
  HS02004817HS02004807 CONDUIT     45.68     0  02:28      0.13    0.03    0.52
  HS02004817HS02004824 CONDUIT     44.91     0  02:26      0.17    0.02    0.41
  HS02004824HS02004830 CONDUIT     25.79     0  02:26      0.49    0.03    0.08
  HS02004830HS02004837 CONDUIT     25.65     0  02:25      0.46    0.03    0.08
  HS02004837HS02004842 CONDUIT      7.01     0  03:01      0.41    0.00    0.29
  HS02004842HS02004848 CONDUIT      6.79     0  02:50      0.04    0.00    0.28
  HS02004848HS02004852 CONDUIT      9.33     0  02:25      0.33    0.01    0.04
  HS02004852HS02004856 CONDUIT      9.31     0  02:26      0.14    0.01    0.10
  HS02004856HS02004862 CONDUIT     14.82     0  02:25      0.35    0.01    0.06
  HS02004862HS02004870 CONDUIT     22.04     0  02:26      0.49    0.02    0.06
  HS02004870HS02004876 CONDUIT     29.40     0  02:25      0.41    0.02    0.10
  HS02004876HS02004881 CONDUIT     36.81     0  02:25      0.59    0.39    0.09
  HS02004881HS02006253 CONDUIT     40.76     0  02:25      1.69    0.01    0.23
  HS02004901HS02004770 CONDUIT      9.22     0  02:23      0.05    0.03    0.31
  WS02001211WS02001212 CONDUIT    200.63     0  03:00      0.54    0.15    0.50
  WS02001212WS02001213 CONDUIT    202.02     0  02:59      1.03    0.31    0.34
  WS02001213WS02003059 CONDUIT    205.16     0  02:58      0.47    0.34    0.65
  WS02003059WS02003060 CONDUIT    209.28     0  02:59      0.66    0.14    0.56
  WS02003060WS02003069 CONDUIT    664.53     0  03:38      1.72    0.26    0.37
  WS02003066WSF200     CONDUIT    459.69     0  03:37      2.64    0.08    0.21
  WS02003067WS02003066 CONDUIT    459.77     0  03:37      1.11    0.15    0.40
  WS02003069WS02003072 CONDUIT    664.15     0  03:39      1.45    0.32    0.42
  WS02003072WS02003073 CONDUIT    663.76     0  03:39      1.53    1.43    0.41
  WS02004138WS02004139 CONDUIT    190.63     0  00:29      2.18    0.04    0.33
  WS02004139WS02001211 CONDUIT    191.70     0  02:59      0.54    0.24    0.46
  WS02004401WS02004402 CONDUIT    469.09     0  03:34      1.20    0.56    0.81
  WS02004402WS02004403 CONDUIT    468.36     0  03:35      1.21    0.67    0.83
  WS02004403WS02004404 CONDUIT    467.90     0  03:35      1.16    0.34    0.88
  WS02004404WS02004405 CONDUIT    467.85     0  03:35      1.39    4.58    0.91
  WS02004405WS02004406 CONDUIT    467.70     0  03:35      1.35    0.92    0.91
  WS02004406WS02004407 CONDUIT    467.33     0  03:35      0.96    0.21    0.60
  WS02004407WS02004409 CONDUIT    467.01     0  03:35      1.39    0.17    0.44
  WS02004409WS02004410 CONDUIT    465.03     0  03:36      0.91    0.60    0.62
  WS02004410WS02004411 CONDUIT    463.20     0  03:36      0.88    0.63    0.63
  WS02004411WS02004412 CONDUIT    461.80     0  03:36      0.86    0.66    0.65
  WS02004412WS02004413 CONDUIT    460.59     0  03:37      0.87    0.31    0.73
  WS02004413WS02003067 CONDUIT    459.60     0  03:37      1.02    0.20    0.56
  WS02006109WS02006110 CONDUIT    474.12     0  03:33      0.95    0.91    0.98
  WS02006110WS02006113 CONDUIT    474.06     0  03:33      1.15    0.43    0.76
  WS02006111WS02006112 CONDUIT    475.60     0  03:34      1.94    0.23    0.66
  WS02006112WS02006115 CONDUIT    473.41     0  03:34      0.72    0.28    0.83
  WS02006113WS02006111 CONDUIT    488.62     0  03:34      2.35    0.59    0.43
  WS02006115WS02006116 CONDUIT    471.45     0  03:34      1.18    0.61    0.70
  WS02006116WS02004401 CONDUIT    470.12     0  03:34      1.20    0.65    0.78
  WS02006228WS02006109 CONDUIT    472.88     0  03:33      1.04    2.07    1.00
  WS02006229WS02006228 CONDUIT    472.81     0  03:33      1.08    1.57    1.00
  WS02006230WS02006229 CONDUIT    420.02     0  03:33      1.20    9.35    1.00
  WS02006231WS02006230 CONDUIT    410.54     0  03:33      1.34    6.23    0.87
  WS02006232WS02006231 CONDUIT    411.54     0  03:33      1.08    0.86    0.96
  WS02006234WS02006232 CONDUIT    411.54     0  03:33      1.41    0.83    1.00
  WS02006235WS02006234 CONDUIT    411.77     0  03:33      1.23    4.34    1.00
  WS02006238WS02006235 CONDUIT    353.96     0  00:08      1.45    0.79    1.00
  WS02006239WS02006238 CONDUIT    352.56     0  00:09      1.12    1.13    1.00
  WS02006240WS02006239 CONDUIT    356.81     0  00:08      1.26    1.12    1.00
  WS02006242WS02006240 CONDUIT    368.66     0  00:08      1.14    1.46    1.00
  WS02006243WS02006242 CONDUIT    376.40     0  00:08      1.34    0.80    0.95
  WS02006245WS02006243 CONDUIT    382.00     0  00:08      1.39    1.13    0.87
  WS02006247WS02006245 CONDUIT    386.19     0  00:07      1.37    3.06    0.86
  WS02006248WS02006247 CONDUIT    389.15     0  00:05      1.38    0.85    0.85
  WS02006249WS02006248 CONDUIT    393.07     0  00:08      1.38    2.15    0.84
  WS02006251WS02006249 CONDUIT    400.45     0  00:02      1.68    1.15    0.89
  WS02006252WS02006251 CONDUIT    400.21     0  00:00     24.89    1.47    1.00
  WS02006253WS02006251 CONDUIT    197.53     0  00:00      1.19    0.59    0.91
  WS02006256WS02006235 CONDUIT    288.93     0  00:00      4.23    3.06    1.00
  WS02006280WS02006229 CONDUIT    204.82     0  02:26      2.99    0.04    0.14
  WS02006284WS02006280 CONDUIT    204.82     0  02:26      1.86    0.09    0.20
  WS02006287WS02006284 CONDUIT    204.72     0  02:26      1.62    0.09    0.22
  WSF200WS02003060     CONDUIT    460.01     0  03:38      1.66    0.10    0.29
  YS02001580YS02001583 CONDUIT      0.00     0  00:00      0.00    0.00    0.00
  YS02001583YS02001586 CONDUIT      0.00     0  00:00      0.00    0.00    0.05
  YS02001586YS02001590 CONDUIT     22.09     0  02:24      0.71    0.04    0.17
  YS02001590YS02001593 CONDUIT     22.06     0  02:25      0.48    0.14    0.22
  YS02001593YS02001596 CONDUIT     22.06     0  02:26      1.05    0.03    0.13
  YS02001596YS02001600 CONDUIT     22.06     0  02:26      0.91    0.04    0.14
  YS02001600YS02001601 CONDUIT     22.07     0  02:27      0.23    0.04    0.38
  YS02001601YS02001602 CONDUIT     60.88     0  02:24      0.36    0.22    0.59
  YS02001602YS02001605 CONDUIT     60.68     0  02:25      0.42    1.28    0.51
  YS02001605YS02001607 CONDUIT     60.42     0  02:26      0.49    0.33    0.53
  YS02001607YS02001610 CONDUIT     60.18     0  02:27      0.33    0.06    0.36
  YS02001610YS02001613 CONDUIT     60.03     0  02:28      0.23    0.07    0.36
  YS02001613YS02001616 CONDUIT     59.98     0  02:29      0.30    0.05    0.30
  YS02001616YS02001619 CONDUIT     59.95     0  02:29      0.40    0.10    0.25
  YS02001619YS02001622 CONDUIT     95.97     0  02:28      0.76    0.14    0.22
  YS02001622YS02001625 CONDUIT     95.89     0  02:29      0.38    0.05    0.36
  YS02001625YS02001629 CONDUIT     95.76     0  02:31      0.43    0.05    0.33
  YS02001629YS02163301 CONDUIT     95.75     0  02:31      0.39    0.12    0.37
  YS02001633YS02163601 CONDUIT    123.15     0  02:31      0.35    0.13    0.46
  YS02001641YS02001644 CONDUIT    123.28     0  02:33      0.36    0.40    0.45
  YS02001644YS02001647 CONDUIT    146.70     0  02:32      0.68    0.09    0.32
  YS02001647YS02001649 CONDUIT    146.71     0  02:33      1.30    0.08    0.20
  YS02001649YS02001757 CONDUIT    166.00     0  02:31      1.35    0.10    0.21
  YS02001652YS02001649 CONDUIT     21.29     0  02:23      0.61    0.01    0.14
  YS02001655YS02001652 CONDUIT     21.30     0  02:23      0.85    0.01    0.07
  YS02001658YS02001655 CONDUIT     21.15     0  02:22      0.89    0.01    0.07
  YS02001661YS02001658 CONDUIT     21.16     0  02:22      0.96    0.01    0.07
  YS02001664YS02001661 CONDUIT     21.17     0  02:22      0.55    0.01    0.10
  YS02001745YS02001748 CONDUIT     15.16     0  02:22      0.90    0.01    0.05
  YS02001748YS02001751 CONDUIT     15.21     0  02:22      0.76    0.01    0.06
  YS02001751YS02001754 CONDUIT     15.21     0  02:23      0.77    0.01    0.06
  YS02001754YS02001757 CONDUIT     15.47     0  02:23      0.40    0.01    0.13
  YS02001757CaochengTiaoxuchi CONDUIT    230.89     0  02:28      0.69    0.10    0.50
  YS02001759YS02001757 CONDUIT     51.71     0  02:25      0.64    0.04    0.17
  YS02001762YS02001759 CONDUIT     32.17     0  02:26      0.53    0.04    0.13
  YS02001765YS02001762 CONDUIT     32.16     0  02:26      0.56    0.03    0.13
  YS02001767YS02001765 CONDUIT     32.17     0  02:25      0.55    0.04    0.13
  YS02001770YS02001767 CONDUIT     31.67     0  02:24      0.41    0.13    0.15
  YS02001774YS02001770 CONDUIT      2.44     0  01:37      0.21    0.00    0.19
  YS02001779YS02001774 CONDUIT      0.01     0  00:03      0.01    0.00    0.12
  YS02001783YS02001784 CONDUIT     96.11     0  02:30      0.84    0.13    0.28
  YS02001784YS02001785 CONDUIT     97.08     0  02:30      0.85    0.23    0.28
  YS02001786YS02001788 CONDUIT     97.09     0  02:30      1.20    0.19    0.22
  YS02001788YS02001790 CONDUIT     97.15     0  02:31      1.35    0.07    0.20
  YS02001790YS02001791 CONDUIT     97.30     0  02:31      1.52    0.11    0.19
  YS02001791YS02001793 CONDUIT     97.29     0  02:31      3.05    0.04    0.11
  YS02001793JiankangQianchi CONDUIT     97.29     0  02:31      0.23    0.01    0.53
  YS02001882YS02001884 CONDUIT      1.87     0  01:51      0.04    0.00    0.26
  YS02001884YS02001887 CONDUIT      5.65     0  01:52      0.05    0.01    0.36
  YS02001887YS02001890 CONDUIT     22.70     0  02:23      0.10    0.04    0.41
  YS02001890YS02001895 CONDUIT     22.03     0  02:26      0.10    0.01    0.33
  YS02001895YS02001898 CONDUIT     22.07     0  02:25      0.29    0.04    0.20
  YS02001898YS02001901 CONDUIT     22.79     0  02:27      0.12    0.01    0.28
  YS02001901YS02001904 CONDUIT     22.07     0  02:31      0.21    0.03    0.34
  YS02001904YS02001907 CONDUIT     22.99     0  02:31      0.06    0.01    0.50
  YS02001907YS02006553 CONDUIT     67.14     0  02:30      0.10    0.08    0.73
  YS02001910YS02001907 CONDUIT     46.43     0  02:29      0.49    0.03    0.55
  YS02001915YS02001910 CONDUIT     46.56     0  02:25      0.54    0.02    0.34
  YS02001918YS02001915 CONDUIT     17.06     0  02:29      0.44    0.01    0.15
  YS02001920YS02001918 CONDUIT     17.07     0  02:28      0.34    0.02    0.11
  YS02001923YS02001920 CONDUIT     14.22     0  02:27      0.31    0.01    0.11
  YS02001926YS02001923 CONDUIT     14.18     0  02:27      0.37    0.02    0.10
  YS02001929YS02001926 CONDUIT     14.17     0  02:25      0.38    0.01    0.09
  YS02006553YS02006556 CONDUIT     67.32     0  02:30      0.18    0.06    0.64
  YS02006556YS02006558 CONDUIT     67.17     0  02:30      0.12    0.05    0.67
  YS02006558YS02006561 CONDUIT     96.19     0  02:29      1.67    0.21    0.26
  YS02006561YS02001783 CONDUIT     96.17     0  02:29      1.31    0.05    0.20
  YS02163301YS02001633 CONDUIT     95.73     0  02:32      0.31    0.09    0.41
  YS02163601YS02164001 CONDUIT    123.23     0  02:32      0.35    0.11    0.46
  YS02164001YS02001641 CONDUIT    123.25     0  02:33      0.37    0.17    0.44
  YSB1154YSB6556       CONDUIT     13.15     0  02:24      0.14    0.02    0.46
  YSB1171HS02004479    CONDUIT     23.10     0  02:26      0.54    0.02    0.44
  YSB1174YSB1171       CONDUIT     10.09     0  02:22      0.04    0.02    0.57
  YSB6556YSB1171       CONDUIT     13.19     0  02:26      0.06    0.01    0.57
  CC-R1                PUMP       683.00     0  00:00              1.00
  CC-R2                PUMP       683.00     0  00:00              1.00
  CC-S1                PUMP       200.00     0  00:00              1.00
  CC-S2                PUMP       200.00     0  00:00              1.00
  JK-R1                PUMP      1000.00     0  00:00              1.00
  JK-R2                PUMP      1000.00     0  00:00              1.00
  JK-S                 PUMP       300.00     0  00:00              1.00
  XR-1                 PUMP        95.00     0  00:00              1.00
  XR-2                 PUMP        95.00     0  00:00              1.00
  XR-3                 PUMP        95.00     0  00:00              1.00
  XR-4                 PUMP        95.00     0  00:00              1.00
  
  
  ***************************
  Flow Classification Summary
  ***************************
  
  -------------------------------------------------------------------------------------
                      Adjusted    ---------- Fraction of Time in Flow Class ---------- 
                       /Actual         Up    Down  Sub   Sup   Up    Down  Norm  Inlet 
  Conduit               Length    Dry  Dry   Dry   Crit  Crit  Crit  Crit  Ltd   Ctrl  
  -------------------------------------------------------------------------------------
  1                       1.00   0.00  0.00  0.00  0.00  1.00  0.00  0.00  0.32  0.00
  HS02004478WS02006287    1.00   0.07  0.00  0.00  0.75  0.18  0.00  0.00  0.78  0.00
  HS02004479HS02004480    1.00   0.03  0.00  0.00  0.97  0.00  0.00  0.00  0.11  0.00
  HS02004480HS02004478    1.00   0.06  0.00  0.00  0.59  0.00  0.00  0.35  0.00  0.00
  HS02004770HS02004777    1.00   0.00  0.06  0.00  0.94  0.00  0.00  0.00  0.03  0.00
  HS02004777HS02004785    1.00   0.00  0.00  0.00  1.00  0.00  0.00  0.00  0.13  0.00
  HS02004785HS02004788    1.00   0.00  0.00  0.00  1.00  0.00  0.00  0.00  0.00  0.00
  HS02004788HS02004792    1.00   0.00  0.00  0.00  1.00  0.00  0.00  0.00  0.98  0.00
  HS02004792HS02004799    1.00   0.00  0.00  0.00  0.99  0.01  0.00  0.00  0.98  0.00
  HS02004799HS02004480    1.00   0.00  0.02  0.00  0.93  0.00  0.04  0.00  0.00  0.00
  HS02004802HS02004478    1.00   0.06  0.00  0.00  0.94  0.00  0.00  0.00  0.03  0.00
  HS02004807HS02004802    1.00   0.06  0.00  0.00  0.94  0.00  0.00  0.01  0.00  0.00
  HS02004817HS02004807    1.00   0.00  0.06  0.00  0.94  0.00  0.00  0.00  0.01  0.00
  HS02004817HS02004824    1.00   0.00  0.00  0.00  1.00  0.00  0.00  0.00  1.00  0.00
  HS02004824HS02004830    1.00   0.00  0.00  0.00  1.00  0.00  0.00  0.00  0.00  0.00
  HS02004830HS02004837    1.00   0.00  0.00  0.00  1.00  0.00  0.00  0.00  0.99  0.00
  HS02004837HS02004842    1.00   0.00  0.00  0.00  1.00  0.00  0.00  0.00  0.11  0.00
  HS02004842HS02004848    1.00   0.00  0.06  0.00  0.94  0.00  0.00  0.00  0.62  0.00
  HS02004848HS02004852    1.00   0.06  0.00  0.00  0.94  0.00  0.00  0.00  0.70  0.00
  HS02004852HS02004856    1.00   0.06  0.00  0.00  0.94  0.00  0.00  0.00  0.86  0.00
  HS02004856HS02004862    1.00   0.00  0.08  0.00  0.92  0.00  0.00  0.00  0.81  0.00
  HS02004862HS02004870    1.00   0.00  0.00  0.00  1.00  0.00  0.00  0.00  0.05  0.00
  HS02004870HS02004876    1.00   0.00  0.00  0.00  0.99  0.01  0.00  0.00  0.95  0.00
  HS02004876HS02004881    1.00   0.01  0.00  0.00  0.99  0.00  0.00  0.00  0.00  0.00
  HS02004881HS02006253    1.00   0.02  0.01  0.00  0.60  0.00  0.00  0.36  0.24  0.00
  HS02004901HS02004770    1.00   0.06  0.00  0.00  0.94  0.00  0.00  0.00  0.00  0.00
  WS02001211WS02001212    1.00   0.00  0.02  0.00  0.98  0.00  0.00  0.00  0.00  0.00
  WS02001212WS02001213    1.00   0.02  0.00  0.00  0.49  0.00  0.49  0.00  0.00  0.00
  WS02001213WS02003059    1.00   0.00  0.00  0.00  1.00  0.00  0.00  0.00  0.00  0.00
  WS02003059WS02003060    1.00   0.00  0.00  0.00  1.00  0.00  0.00  0.00  0.03  0.00
  WS02003060WS02003069    1.00   0.00  0.00  0.00  0.99  0.01  0.00  0.00  0.52  0.00
  WS02003066WSF200        1.00   0.04  0.00  0.00  0.00  0.96  0.00  0.00  0.93  0.00
  WS02003067WS02003066    1.00   0.04  0.00  0.00  0.96  0.00  0.00  0.00  0.00  0.00
  WS02003069WS02003072    1.00   0.00  0.00  0.00  1.00  0.00  0.00  0.00  0.61  0.00
  WS02003072WS02003073    1.00   0.00  0.00  0.00  0.00  0.00  0.00  1.00  0.00  0.00
  WS02004138WS02004139    1.00   0.00  0.00  0.00  0.98  0.01  0.00  0.01  0.98  0.00
  WS02004139WS02001211    1.00   0.00  0.00  0.00  1.00  0.00  0.00  0.00  0.00  0.00
  WS02004401WS02004402    1.00   0.02  0.00  0.00  0.98  0.00  0.00  0.00  0.00  0.00
  WS02004402WS02004403    1.00   0.02  0.00  0.00  0.98  0.00  0.00  0.00  0.00  0.00
  WS02004403WS02004404    1.00   0.00  0.02  0.00  0.98  0.00  0.00  0.00  0.00  0.00
  WS02004404WS02004405    1.00   0.00  0.00  0.00  1.00  0.00  0.00  0.00  0.01  0.00
  WS02004405WS02004406    1.00   0.00  0.00  0.00  1.00  0.00  0.00  0.00  0.00  0.00
  WS02004406WS02004407    1.00   0.00  0.03  0.00  0.97  0.00  0.00  0.00  0.00  0.00
  WS02004407WS02004409    1.00   0.03  0.00  0.00  0.97  0.00  0.00  0.00  0.96  0.00
  WS02004409WS02004410    1.00   0.03  0.00  0.00  0.97  0.00  0.00  0.00  0.00  0.00
  WS02004410WS02004411    1.00   0.03  0.00  0.00  0.97  0.00  0.00  0.00  0.00  0.00
  WS02004411WS02004412    1.00   0.03  0.00  0.00  0.97  0.00  0.00  0.00  0.00  0.00
  WS02004412WS02004413    1.00   0.03  0.00  0.00  0.97  0.00  0.00  0.00  0.00  0.00
  WS02004413WS02003067    1.00   0.03  0.00  0.00  0.00  0.00  0.96  0.00  0.00  0.00
  WS02006109WS02006110    1.00   0.00  0.00  0.00  0.99  0.00  0.01  0.00  0.00  0.00
  WS02006110WS02006113    1.00   0.00  0.01  0.00  0.99  0.00  0.00  0.00  0.00  0.00
  WS02006111WS02006112    1.00   0.01  0.00  0.00  0.98  0.00  0.00  0.00  0.98  0.00
  WS02006112WS02006115    1.00   0.01  0.00  0.00  0.98  0.00  0.00  0.00  0.00  0.00
  WS02006113WS02006111    1.00   0.01  0.00  0.00  0.00  0.99  0.00  0.00  0.14  0.00
  WS02006115WS02006116    1.00   0.02  0.00  0.00  0.98  0.00  0.00  0.00  0.00  0.00
  WS02006116WS02004401    1.00   0.02  0.00  0.00  0.98  0.00  0.00  0.00  0.00  0.00
  WS02006228WS02006109    1.00   0.00  0.00  0.00  1.00  0.00  0.00  0.00  0.00  0.00
  WS02006229WS02006228    1.00   0.00  0.00  0.00  1.00  0.00  0.00  0.00  0.00  0.00
  WS02006230WS02006229    1.00   0.00  0.00  0.00  0.99  0.00  0.00  0.01  0.00  0.00
  WS02006231WS02006230    1.00   0.00  0.00  0.00  0.37  0.00  0.63  0.00  0.00  0.00
  WS02006232WS02006231    1.00   0.00  0.00  0.00  1.00  0.00  0.00  0.00  0.00  0.00
  WS02006234WS02006232    1.00   0.00  0.00  0.00  1.00  0.00  0.00  0.00  0.39  0.00
  WS02006235WS02006234    1.00   0.00  0.00  0.00  0.81  0.00  0.19  0.00  0.00  0.00
  WS02006238WS02006235    1.00   0.00  0.00  0.00  1.00  0.00  0.00  0.00  0.00  0.00
  WS02006239WS02006238    1.00   0.00  0.00  0.00  1.00  0.00  0.00  0.00  0.48  0.00
  WS02006240WS02006239    1.00   0.00  0.00  0.00  0.78  0.00  0.00  0.22  0.01  0.00
  WS02006242WS02006240    1.00   0.00  0.00  0.00  1.00  0.00  0.00  0.00  0.00  0.00
  WS02006243WS02006242    1.00   0.00  0.00  0.00  1.00  0.00  0.00  0.00  0.68  0.00
  WS02006245WS02006243    1.00   0.00  0.00  0.00  0.94  0.00  0.00  0.06  0.00  0.00
  WS02006247WS02006245    1.00   0.00  0.00  0.00  0.99  0.00  0.00  0.01  0.00  0.00
  WS02006248WS02006247    1.00   0.00  0.00  0.00  1.00  0.00  0.00  0.00  0.64  0.00
  WS02006249WS02006248    1.00   0.00  0.00  0.00  0.68  0.00  0.32  0.00  0.00  0.00
  WS02006251WS02006249    1.00   0.00  0.00  0.00  1.00  0.00  0.00  0.00  0.64  0.00
  WS02006252WS02006251    1.00   0.00  0.38  0.00  0.00  0.00  0.62  0.00  0.00  0.00
  WS02006253WS02006251    1.00   0.00  0.00  0.00  0.99  0.00  0.01  0.00  0.00  0.00
  WS02006256WS02006235    1.00   0.00  0.00  0.00  1.00  0.00  0.00  0.00  0.00  0.00
  WS02006280WS02006229    1.00   0.06  0.00  0.00  0.00  0.00  0.00  0.94  0.00  0.00
  WS02006284WS02006280    1.00   0.06  0.00  0.00  0.00  0.00  0.00  0.94  0.00  0.00
  WS02006287WS02006284    1.00   0.05  0.02  0.00  0.49  0.45  0.00  0.00  0.78  0.00
  WSF200WS02003060        1.00   0.00  0.04  0.00  0.81  0.15  0.00  0.00  0.73  0.00
  YS02001580YS02001583    1.00   1.00  0.00  0.00  0.00  0.00  0.00  0.00  0.00  0.00
  YS02001583YS02001586    1.00   0.19  0.81  0.00  0.00  0.00  0.00  0.00  0.00  0.00
  YS02001586YS02001590    1.00   0.06  0.00  0.00  0.47  0.13  0.00  0.34  0.39  0.00
  YS02001590YS02001593    1.00   0.06  0.00  0.00  0.00  0.00  0.94  0.00  0.00  0.00
  YS02001593YS02001596    1.00   0.06  0.00  0.00  0.00  0.00  0.00  0.94  0.00  0.00
  YS02001596YS02001600    1.00   0.06  0.00  0.00  0.00  0.00  0.00  0.94  0.00  0.00
  YS02001600YS02001601    1.00   0.06  0.00  0.00  0.94  0.00  0.00  0.00  0.76  0.00
  YS02001601YS02001602    1.00   0.06  0.00  0.00  0.94  0.00  0.00  0.00  0.00  0.00
  YS02001602YS02001605    1.00   0.06  0.00  0.00  0.94  0.00  0.00  0.00  0.00  0.00
  YS02001605YS02001607    1.00   0.06  0.00  0.00  0.94  0.00  0.00  0.00  0.00  0.00
  YS02001607YS02001610    1.00   0.06  0.00  0.00  0.94  0.00  0.00  0.00  0.02  0.00
  YS02001610YS02001613    1.00   0.06  0.00  0.00  0.94  0.00  0.00  0.00  0.01  0.00
  YS02001613YS02001616    1.00   0.06  0.00  0.00  0.94  0.00  0.00  0.00  0.01  0.00
  YS02001616YS02001619    1.00   0.06  0.00  0.00  0.94  0.00  0.00  0.00  0.00  0.00
  YS02001619YS02001622    1.00   0.06  0.00  0.00  0.94  0.00  0.00  0.00  0.33  0.00
  YS02001622YS02001625    1.00   0.06  0.00  0.00  0.94  0.00  0.00  0.00  0.06  0.00
  YS02001625YS02001629    1.00   0.06  0.02  0.00  0.00  0.00  0.92  0.00  0.00  0.00
  YS02001629YS02163301    1.00   0.07  0.00  0.00  0.93  0.00  0.00  0.00  0.00  0.00
  YS02001633YS02163601    1.00   0.00  0.00  0.00  1.00  0.00  0.00  0.00  0.15  0.00
  YS02001641YS02001644    1.00   0.00  0.00  0.00  1.00  0.00  0.00  0.00  0.00  0.00
  YS02001644YS02001647    1.00   0.00  0.08  0.00  0.92  0.00  0.00  0.00  0.00  0.00
  YS02001647YS02001649    1.00   0.00  0.08  0.00  0.18  0.73  0.00  0.00  0.62  0.00
  YS02001649YS02001757    1.00   0.00  0.00  0.00  0.26  0.74  0.00  0.00  0.58  0.00
  YS02001652YS02001649    1.00   0.00  0.00  0.00  0.99  0.01  0.00  0.00  0.96  0.00
  YS02001655YS02001652    1.00   0.00  0.00  0.00  0.00  0.00  0.00  1.00  0.00  0.00
  YS02001658YS02001655    1.00   0.00  0.06  0.00  0.54  0.39  0.00  0.00  0.84  0.00
  YS02001661YS02001658    1.00   0.06  0.00  0.00  0.22  0.72  0.00  0.00  0.83  0.00
  YS02001664YS02001661    1.00   0.06  0.00  0.00  0.94  0.00  0.00  0.00  0.87  0.00
  YS02001745YS02001748    1.00   0.00  0.00  0.00  0.00  0.00  0.00  1.00  0.00  0.00
  YS02001748YS02001751    1.00   0.00  0.00  0.00  0.70  0.30  0.00  0.00  0.78  0.00
  YS02001751YS02001754    1.00   0.00  0.00  0.00  0.00  0.00  0.00  1.00  0.00  0.00
  YS02001754YS02001757    1.00   0.00  0.00  0.00  1.00  0.00  0.00  0.00  1.00  0.00
  YS02001757CaochengTiaoxuchi    1.00   0.00  0.00  0.00  1.00  0.00  0.00  0.00  1.00  0.00
  YS02001759YS02001757    1.00   0.00  0.00  0.00  1.00  0.00  0.00  0.00  0.88  0.00
  YS02001762YS02001759    1.00   0.00  0.00  0.00  1.00  0.00  0.00  0.00  0.08  0.00
  YS02001765YS02001762    1.00   0.00  0.00  0.00  1.00  0.00  0.00  0.00  0.90  0.00
  YS02001767YS02001765    1.00   0.00  0.00  0.00  1.00  0.00  0.00  0.00  0.00  0.00
  YS02001770YS02001767    1.00   0.00  0.00  0.00  1.00  0.00  0.00  0.00  0.00  0.00
  YS02001774YS02001770    1.00   0.00  0.06  0.00  0.86  0.00  0.08  0.00  0.04  0.00
  YS02001779YS02001774    1.00   0.00  0.00  0.00  1.00  0.00  0.00  0.00  0.99  0.00
  YS02001783YS02001784    1.00   0.00  0.09  0.00  0.91  0.00  0.00  0.00  0.60  0.00
  YS02001784YS02001785    1.00   0.00  0.00  0.00  1.00  0.00  0.00  0.00  0.20  0.00
  YS02001786YS02001788    1.00   0.00  0.00  0.00  0.71  0.29  0.00  0.00  0.00  0.00
  YS02001788YS02001790    1.00   0.00  0.00  0.00  0.10  0.90  0.00  0.00  0.99  0.00
  YS02001790YS02001791    1.00   0.00  0.00  0.00  0.01  0.99  0.00  0.00  0.12  0.00
  YS02001791YS02001793    1.00   0.00  0.00  0.00  0.00  1.00  0.00  0.00  0.00  0.00
  YS02001793JiankangQianchi    1.00   0.00  0.00  0.00  1.00  0.00  0.00  0.00  1.00  0.00
  YS02001882YS02001884    1.00   0.07  0.00  0.00  0.93  0.00  0.00  0.00  0.00  0.00
  YS02001884YS02001887    1.00   0.04  0.02  0.00  0.95  0.00  0.00  0.00  0.00  0.00
  YS02001887YS02001890    1.00   0.00  0.00  0.00  0.98  0.00  0.02  0.00  0.00  0.00
  YS02001890YS02001895    1.00   0.00  0.07  0.00  0.92  0.00  0.00  0.00  0.00  0.00
  YS02001895YS02001898    1.00   0.08  0.00  0.00  0.91  0.00  0.01  0.00  0.00  0.00
  YS02001898YS02001901    1.00   0.07  0.01  0.00  0.92  0.00  0.00  0.00  0.02  0.00
  YS02001901YS02001904    1.00   0.07  0.00  0.00  0.93  0.00  0.00  0.00  0.00  0.00
  YS02001904YS02001907    1.00   0.00  0.07  0.00  0.93  0.00  0.00  0.00  0.00  0.00
  YS02001907YS02006553    1.00   0.00  0.02  0.00  0.98  0.00  0.00  0.00  0.00  0.00
  YS02001910YS02001907    1.00   0.00  0.00  0.00  0.98  0.00  0.00  0.02  0.12  0.00
  YS02001915YS02001910    1.00   0.00  0.00  0.00  0.98  0.02  0.00  0.00  0.19  0.00
  YS02001918YS02001915    1.00   0.00  0.00  0.00  0.98  0.02  0.00  0.00  0.87  0.00
  YS02001920YS02001918    1.00   0.00  0.00  0.00  1.00  0.00  0.00  0.00  0.00  0.00
  YS02001923YS02001920    1.00   0.00  0.00  0.00  1.00  0.00  0.00  0.00  1.00  0.00
  YS02001926YS02001923    1.00   0.00  0.04  0.00  0.00  0.00  0.96  0.00  0.00  0.00
  YS02001929YS02001926    1.00   0.00  0.06  0.00  0.94  0.00  0.00  0.00  0.87  0.00
  YS02006553YS02006556    1.00   0.01  0.00  0.00  0.99  0.00  0.00  0.00  0.03  0.00
  YS02006556YS02006558    1.00   0.00  0.00  0.00  1.00  0.00  0.00  0.00  0.00  0.00
  YS02006558YS02006561    1.00   0.09  0.00  0.00  0.00  0.91  0.00  0.00  0.23  0.00
  YS02006561YS02001783    1.00   0.09  0.00  0.00  0.00  0.91  0.00  0.00  0.78  0.00
  YS02163301YS02001633    1.00   0.00  0.07  0.00  0.93  0.00  0.00  0.00  0.00  0.00
  YS02163601YS02164001    1.00   0.00  0.04  0.00  0.96  0.00  0.00  0.00  0.00  0.00
  YS02164001YS02001641    1.00   0.00  0.04  0.00  0.96  0.00  0.00  0.00  0.05  0.00
  YSB1154YSB6556          1.00   0.06  0.00  0.00  0.94  0.00  0.00  0.00  0.02  0.00
  YSB1171HS02004479       1.00   0.03  0.00  0.00  0.97  0.00  0.00  0.01  0.10  0.00
  YSB1174YSB1171          1.00   0.03  0.01  0.00  0.95  0.00  0.00  0.00  0.00  0.00
  YSB6556YSB1171          1.00   0.03  0.03  0.00  0.94  0.00  0.00  0.00  0.00  0.00
  
  
  *************************
  Conduit Surcharge Summary
  *************************
  
  ----------------------------------------------------------------------------
                                                           Hours        Hours 
                         --------- Hours Full --------   Above Full   Capacity
  Conduit                Both Ends  Upstream  Dnstream   Normal Flow   Limited
  ----------------------------------------------------------------------------
  WS02003072WS02003073        0.01      0.01      0.01      1.62         0.01
  WS02004404WS02004405        0.01      0.01      0.01      3.32         0.01
  WS02006109WS02006110        0.01      0.01      0.44      0.01         0.01
  WS02006110WS02006113        0.01      0.01      0.41      0.01         0.01
  WS02006111WS02006112        0.01      0.01      1.15      0.01         0.01
  WS02006228WS02006109        0.37      0.44      0.37      2.60         0.37
  WS02006229WS02006228        0.35      0.38      0.35      1.04         0.35
  WS02006230WS02006229        0.65      0.79      0.65      2.94         0.65
  WS02006231WS02006230        0.01      0.01      0.01      2.62         0.01
  WS02006232WS02006231        0.01      0.01      0.16      0.01         0.01
  WS02006234WS02006232        0.11      0.11      0.16      0.01         0.01
  WS02006235WS02006234        0.09      0.09      0.13      2.45         0.01
  WS02006238WS02006235        0.13      0.13      0.15      0.01         0.01
  WS02006239WS02006238        0.12      0.12      0.13      0.07         0.01
  WS02006240WS02006239        0.04      0.04      0.08      0.07         0.01
  WS02006242WS02006240        0.03      0.03      0.10      0.18         0.01
  WS02006243WS02006242        0.01      0.01      0.06      0.01         0.01
  WS02006245WS02006243        0.01      0.01      0.01      0.09         0.01
  WS02006247WS02006245        0.01      0.01      0.01      2.02         0.01
  WS02006249WS02006248        0.01      0.01      0.01      2.00         0.01
  WS02006251WS02006249        0.01      0.01      0.01      0.11         0.01
  WS02006252WS02006251        0.13      0.13      0.13      0.13         0.01
  WS02006256WS02006235        2.52      2.53      4.33      0.45         0.01
  YS02001602YS02001605        0.01      0.01      0.01      1.20         0.01
  YS02001793JiankangQianchi        0.01      0.01      7.70      0.01         0.01
  
  
  ***************
  Pumping Summary
  ***************
  
  ---------------------------------------------------------------------------------------------------------
                                                  Min       Avg       Max     Total     Power    % Time Off
                        Percent   Number of      Flow      Flow      Flow    Volume     Usage    Pump Curve
  Pump                 Utilized   Start-Ups       LPS       LPS       LPS  10^6 ltr     Kw-hr    Low   High
  ---------------------------------------------------------------------------------------------------------
  CC-R1                    1.69           1      0.00    683.00    683.00     0.331      5.55    0.0  100.0
  CC-R2                    1.69           1      0.00    683.00    683.00     0.331      5.55    0.0  100.0
  CC-S1                   25.31           2      0.00    200.00    200.00     1.458      9.61    0.0    0.0
  CC-S2                    1.69           1      0.00    200.00    200.00     0.097      0.71    0.0    0.0
  JK-R1                    0.16           1      0.00   1000.00   1000.00     0.047      0.36    0.0    0.0
  JK-R2                    0.16           1      0.00   1000.00   1000.00     0.047      0.36    0.0    0.0
  JK-S                     5.65           3      0.00    300.00    300.00     0.488      7.98    0.0    0.0
  XR-1                    97.91           2      0.00     95.00     95.00     2.679      9.62    0.0    0.0
  XR-2                    93.94           2      0.00     95.00     95.00     2.570      8.78    0.0    0.0
  XR-3                     0.00           1      0.00     95.00     95.00     0.000      0.00    0.0    0.0
  XR-4                     0.00           1      0.00     95.00     95.00     0.000      0.00    0.0    0.0
  

  Analysis begun on:  Tue Jun 20 17:15:09 2023
  Analysis ended on:  Tue Jun 20 17:15:14 2023
  Total elapsed time: 00:00:05