
  OWA STORM WATER MANAGEMENT MODEL - VERSION v5.1.14 (OWA 2022-07-31)
  --------------------------------------------------------------

  WARNING 04: minimum elevation drop used for Conduit WS02004404WS02004405
  WARNING 03: negative offset ignored for Link YS02001904YS02001907
  
  *********************************************************
  NOTE: The summary statistics displayed in this report are
  based on results found at every computational time step,  
  not just on results from each reporting time step.
  *********************************************************
  
  ****************
  Analysis Options
  ****************
  Flow Units ............... LPS
  Process Models:
    Rainfall/Runoff ........ YES
    RDII ................... NO
    Snowmelt ............... NO
    Groundwater ............ NO
    Flow Routing ........... YES
    Ponding Allowed ........ NO
    Water Quality .......... NO
  Infiltration Method ...... HORTON
  Flow Routing Method ...... DYNWAVE
  Surcharge Method ......... EXTRAN
  Starting Date ............ 08/28/2015 08:00:00
  Ending Date .............. 08/28/2015 16:00:00
  Antecedent Dry Days ...... 8.0
  Report Time Step ......... 00:01:00
  Wet Time Step ............ 00:01:00
  Dry Time Step ............ 00:01:00
  Routing Time Step ........ 30.00 sec
  Variable Time Step ....... YES
  Maximum Trials ........... 8
  Number of Threads ........ 4
  Head Tolerance ........... 0.001500 m
  
  
  **************************        Volume         Depth
  Runoff Quantity Continuity     hectare-m            mm
  **************************     ---------       -------
  Total Precipitation ......         2.644        79.703
  Evaporation Loss .........         0.000         0.000
  Infiltration Loss ........         0.107         3.211
  Surface Runoff ...........         2.504        75.504
  Final Storage ............         0.033         0.998
  Continuity Error (%) .....        -0.013
  
  
  **************************        Volume        Volume
  Flow Routing Continuity        hectare-m      10^6 ltr
  **************************     ---------     ---------
  Dry Weather Inflow .......         0.000         0.000
  Wet Weather Inflow .......         2.504        25.037
  Groundwater Inflow .......         0.000         0.000
  RDII Inflow ..............         0.000         0.000
  External Inflow ..........         0.083         0.834
  External Outflow .........         2.672        26.719
  Flooding Loss ............         0.140         1.403
  Evaporation Loss .........         0.000         0.000
  Exfiltration Loss ........         0.000         0.000
  Initial Stored Volume ....         0.248         2.479
  Final Stored Volume ......         0.032         0.318
  Continuity Error (%) .....        -0.320
  
  
  *************************
  Highest Continuity Errors
  *************************
  Node WS02004406 (10.53%)
  Node WS02004413 (8.08%)
  Node WS02004405 (6.13%)
  Node WS02006112 (5.18%)
  Node YS02001583 (-4.78%)
  
  
  ***************************
  Time-Step Critical Elements
  ***************************
  Link 3 (93.64%)
  Link YS02006556YS02006558 (4.03%)
  
  
  ********************************
  Highest Flow Instability Indexes
  ********************************
  Link YS02001790YS02001791 (24)
  Link YS02006556YS02006558 (11)
  Link YS02006558YS02006561 (10)
  Link YS02001907YS02006553 (10)
  Link YS02001882YS02001884 (9)
  
  
  *************************
  Routing Time Step Summary
  *************************
  Minimum Time Step           :     0.00 sec
  Average Time Step           :     1.64 sec
  Maximum Time Step           :     5.31 sec
  Percent in Steady State     :    -0.00
  Average Iterations per Step :     2.60
  Percent Not Converging      :     6.26
  
  
  ***************************
  Subcatchment Runoff Summary
  ***************************
  
  ------------------------------------------------------------------------------------------------------------------------------
                            Total      Total      Total      Total     Imperv       Perv      Total       Total     Peak  Runoff
                           Precip      Runon       Evap      Infil     Runoff     Runoff     Runoff      Runoff   Runoff   Coeff
  Subcatchment                 mm         mm         mm         mm         mm         mm         mm    10^6 ltr      LPS
  ------------------------------------------------------------------------------------------------------------------------------
  sub60                     79.70       0.00       0.00       1.94      68.93       7.63      76.56        1.01   202.22   0.961
  sub61                     79.70       0.00       0.00       2.81      65.02      10.74      75.76        1.39   278.61   0.951
  sub62                     79.70       0.00       0.00       1.29      72.04       5.09      77.12        2.11   417.19   0.968
  sub63                     79.70       0.00       0.00       5.19      55.62      17.92      73.54        1.67   319.09   0.923
  sub64                     79.70       0.00       0.00       2.63      66.54       9.33      75.86        1.82   349.54   0.952
  sub65                     79.70       0.00       0.00       2.27      68.08       8.09      76.17        2.10   398.13   0.956
  sub66                     79.70       0.00       0.00       6.33      55.50      16.79      72.29        3.37   554.56   0.907
  sub67                     79.70       0.00       0.00       1.23      72.08       5.15      77.23        1.44   290.77   0.969
  sub68                     79.70       0.00       0.00       2.33      67.35       8.83      76.18        2.10   416.54   0.956
  sub69                     79.70       0.00       0.00       2.12      67.63       9.84      77.47        2.87   538.35   0.972
  sub70                     79.70       0.00       0.00       6.84      52.43      20.26      72.69        2.10   329.08   0.912
  sub71                     79.70       0.00       0.00       1.33      71.99       5.05      77.04        2.01   385.56   0.967
  sub72                     79.70       0.00       0.00       1.18      72.71       4.40      77.11        1.06   194.25   0.967
  
  
  ******************
  Node Depth Summary
  ******************
  
  ---------------------------------------------------------------------------------
                                 Average  Maximum  Maximum  Time of Max    Reported
                                   Depth    Depth      HGL   Occurrence   Max Depth
  Node                 Type       Meters   Meters   Meters  days hr:min      Meters
  ---------------------------------------------------------------------------------
  WS02003060           JUNCTION     0.07     0.09     5.02     0  06:19        0.09
  WS02003066           JUNCTION     0.02     0.09     5.64     0  05:32        0.09
  WS02003067           JUNCTION     0.07     0.33     5.65     0  05:33        0.33
  WS02003069           JUNCTION     0.08     0.10     4.68     0  07:25        0.10
  WS02003072           JUNCTION     0.12     0.15     4.52     0  07:47        0.15
  WS02003073           JUNCTION     0.06     0.07     4.14     0  07:50        0.07
  WS02004401           JUNCTION     0.23     0.36     6.36     0  05:16        0.36
  WS02004402           JUNCTION     0.26     0.40     6.36     0  05:01        0.40
  WS02004403           JUNCTION     0.28     0.43     6.36     0  04:52        0.43
  WS02004404           JUNCTION     0.35     0.51     6.36     0  04:59        0.51
  WS02004405           JUNCTION     0.35     0.51     6.36     0  05:03        0.51
  WS02004406           JUNCTION     0.37     0.53     6.36     0  05:23        0.53
  WS02004407           JUNCTION     0.02     0.04     6.36     0  05:46        0.04
  WS02004409           JUNCTION     0.04     0.12     5.89     0  06:17        0.12
  WS02004410           JUNCTION     0.05     0.16     5.88     0  05:38        0.16
  WS02004411           JUNCTION     0.06     0.20     5.88     0  05:15        0.20
  WS02004412           JUNCTION     0.07     0.24     5.88     0  05:03        0.24
  WS02004413           JUNCTION     0.12     0.41     5.88     0  05:19        0.41
  WS02006109           JUNCTION     0.32     0.34     6.96     0  04:18        0.34
  WS02006110           JUNCTION     0.35     0.37     6.96     0  05:11        0.37
  WS02006111           JUNCTION     0.05     0.05     6.76     0  05:12        0.05
  WS02006112           JUNCTION     0.37     0.48     6.36     0  06:31        0.48
  WS02006113           JUNCTION     0.06     0.06     6.96     0  05:00        0.06
  WS02006115           JUNCTION     0.14     0.22     6.36     0  06:04        0.22
  WS02006116           JUNCTION     0.20     0.32     6.36     0  05:37        0.32
  WS02006228           JUNCTION     0.29     0.31     6.96     0  03:46        0.31
  WS02006229           JUNCTION     0.25     0.27     6.96     0  03:27        0.27
  WS02006230           JUNCTION     0.21     0.22     6.96     0  03:59        0.22
  WS02006231           JUNCTION     0.00     0.00     7.12     0  00:00        0.00
  WS02006232           JUNCTION     0.00     0.00     7.04     0  00:00        0.00
  WS02006234           JUNCTION     0.00     0.00     7.16     0  00:00        0.00
  WS02006235           JUNCTION     0.00     0.00     7.16     0  00:00        0.00
  WS02006238           JUNCTION     0.00     0.00     7.14     0  00:00        0.00
  WS02006239           JUNCTION     0.00     0.00     7.21     0  00:00        0.00
  WS02006240           JUNCTION     0.00     0.00     7.29     0  00:00        0.00
  WS02006242           JUNCTION     0.00     0.00     7.27     0  00:00        0.00
  WS02006243           JUNCTION     0.00     0.00     7.42     0  00:00        0.00
  WS02006245           JUNCTION     0.00     0.00     7.48     0  00:00        0.00
  WS02006247           JUNCTION     0.00     0.00     7.50     0  00:00        0.00
  WS02006248           JUNCTION     0.00     0.00     7.59     0  00:00        0.00
  WS02006249           JUNCTION     0.00     0.00     7.60     0  00:00        0.00
  WS02006251           JUNCTION     0.00     0.00     7.67     0  00:00        0.00
  WS02006252           JUNCTION     0.00     0.00     8.24     0  00:00        0.00
  WS02006256           JUNCTION     0.00     0.00     6.93     0  00:00        0.00
  WSF200               JUNCTION     0.01     0.04     5.28     0  05:43        0.04
  YS02001580           JUNCTION     0.31     1.05     9.59     0  01:16        0.79
  YS02001583           JUNCTION     0.35     1.14     9.64     0  01:16        0.82
  YS02001586           JUNCTION     0.52     1.13     9.30     0  01:16        1.13
  YS02001590           JUNCTION     0.68     1.40     9.26     0  01:16        1.40
  YS02001593           JUNCTION     0.61     1.33     9.19     0  01:16        1.31
  YS02001596           JUNCTION     0.82     1.69     9.11     0  01:28        1.69
  YS02001600           JUNCTION     0.95     1.87     9.00     0  01:16        1.87
  YS02001601           JUNCTION     1.15     2.06     8.90     0  01:16        2.06
  YS02001602           JUNCTION     1.00     1.87     8.77     0  01:16        1.87
  YS02001605           JUNCTION     0.90     1.78     8.68     0  01:16        1.78
  YS02001607           JUNCTION     0.77     1.67     8.52     0  01:41        1.67
  YS02001610           JUNCTION     0.81     1.68     8.48     0  01:16        1.68
  YS02001613           JUNCTION     0.77     1.70     8.54     0  01:16        1.70
  YS02001616           JUNCTION     0.70     1.61     8.52     0  01:16        1.61
  YS02001619           JUNCTION     0.67     1.61     8.54     0  01:41        1.61
  YS02001622           JUNCTION     0.66     1.62     8.52     0  01:16        1.62
  YS02001625           JUNCTION     0.89     1.78     8.38     0  01:26        1.78
  YS02001629           JUNCTION     0.81     1.85     8.40     0  01:16        1.78
  YS02001633           JUNCTION     0.86     1.96     8.42     0  01:41        1.96
  YS02001641           JUNCTION     0.75     1.82     8.26     0  01:41        1.82
  YS02001644           JUNCTION     0.72     1.63     8.06     0  01:41        1.63
  YS02001647           JUNCTION     0.45     1.33     7.94     0  01:41        1.16
  YS02001649           JUNCTION     0.49     1.34     7.73     0  01:30        1.22
  YS02001652           JUNCTION     0.35     1.39     7.98     0  01:30        1.03
  YS02001655           JUNCTION     0.21     0.78     7.63     0  01:30        0.76
  YS02001658           JUNCTION     0.13     0.45     7.59     0  01:32        0.44
  YS02001661           JUNCTION     0.17     0.32     7.72     0  01:29        0.32
  YS02001664           JUNCTION     0.10     0.21     8.14     0  01:27        0.21
  YS02001745           JUNCTION     0.09     0.19     7.71     0  01:26        0.19
  YS02001748           JUNCTION     0.10     0.35     7.42     0  01:32        0.33
  YS02001751           JUNCTION     0.13     0.58     7.46     0  01:33        0.57
  YS02001754           JUNCTION     0.26     0.86     7.47     0  01:33        0.84
  YS02001757           JUNCTION     0.49     1.22     7.48     0  01:32        1.17
  YS02001759           JUNCTION     0.41     1.27     7.63     0  01:38        1.10
  YS02001762           JUNCTION     0.39     1.17     7.57     0  01:32        1.06
  YS02001765           JUNCTION     0.36     1.10     7.55     0  01:32        1.00
  YS02001767           JUNCTION     0.35     0.99     7.48     0  01:31        0.96
  YS02001770           JUNCTION     0.37     1.01     7.50     0  01:31        0.99
  YS02001774           JUNCTION     0.43     1.10     7.52     0  01:28        1.06
  YS02001779           JUNCTION     0.24     0.82     7.51     0  01:32        0.82
  YS02001783           JUNCTION     0.47     1.25     7.39     0  01:26        1.25
  YS02001784           JUNCTION     0.46     1.16     7.23     0  01:26        1.16
  YS02001786           JUNCTION     0.38     0.87     6.90     0  01:25        0.85
  YS02001788           JUNCTION     0.28     0.61     6.59     0  01:43        0.61
  YS02001790           JUNCTION     0.33     0.71     6.35     0  01:42        0.71
  YS02001791           JUNCTION     0.20     0.43     5.90     0  01:44        0.43
  YS02001793           JUNCTION     0.10     0.22     5.05     0  01:44        0.22
  YS02001882           JUNCTION     0.55     1.72     8.43     0  01:26        1.58
  YS02001884           JUNCTION     0.64     1.80     8.42     0  01:26        1.68
  YS02001887           JUNCTION     0.71     1.84     8.37     0  01:26        1.77
  YS02001890           JUNCTION     0.74     1.81     8.32     0  01:26        1.80
  YS02001895           JUNCTION     0.52     1.58     8.33     0  01:28        1.56
  YS02001898           JUNCTION     0.53     1.59     8.32     0  01:28        1.55
  YS02001901           JUNCTION     0.64     1.70     8.30     0  01:26        1.67
  YS02001904           JUNCTION     0.62     1.65     8.28     0  01:26        1.64
  YS02001907           JUNCTION     0.93     1.96     8.25     0  01:25        1.96
  YS02001910           JUNCTION     0.74     2.10     8.61     0  01:26        2.10
  YS02001915           JUNCTION     0.55     2.00     8.72     0  01:26        2.00
  YS02001918           JUNCTION     0.33     1.81     8.88     0  01:26        1.81
  YS02001920           JUNCTION     0.40     1.80     8.81     0  01:26        1.80
  YS02001923           JUNCTION     0.25     1.12     8.38     0  01:26        1.10
  YS02001926           JUNCTION     0.26     0.94     8.38     0  01:26        0.93
  YS02001929           JUNCTION     0.15     0.70     8.39     0  01:26        0.67
  YS02006553           JUNCTION     0.92     1.96     8.24     0  01:26        1.96
  YS02006556           JUNCTION     0.89     1.92     8.23     0  01:26        1.92
  YS02006558           JUNCTION     0.93     1.95     8.22     0  01:26        1.95
  YS02006561           JUNCTION     0.28     0.86     7.52     0  01:25        0.85
  YS02163301           JUNCTION     0.82     1.86     8.37     0  01:41        1.83
  YS02163601           JUNCTION     0.85     2.00     8.40     0  01:41        2.00
  YS02164001           JUNCTION     0.76     1.90     8.36     0  01:41        1.90
  CC-1                 OUTFALL      0.11     0.73     0.73     0  00:00        0.38
  CC-2                 OUTFALL      0.11     0.73     0.73     0  00:00        0.38
  JK-1                 OUTFALL      0.10     1.00     1.00     0  00:00        0.20
  JK-2                 OUTFALL      0.10     1.00     1.00     0  00:00        0.20
  WSC                  OUTFALL      0.06     0.07     0.74     0  07:50        0.07
  CC-storage           STORAGE      0.11     0.80     6.30     0  00:00        0.38
  JK-storage           STORAGE      0.10     3.00     3.80     0  00:00        0.20
  
  
  *******************
  Node Inflow Summary
  *******************
  
  -------------------------------------------------------------------------------------------------
                                  Maximum  Maximum                  Lateral       Total        Flow
                                  Lateral    Total  Time of Max      Inflow      Inflow     Balance
                                   Inflow   Inflow   Occurrence      Volume      Volume       Error
  Node                 Type           LPS      LPS  days hr:min    10^6 ltr    10^6 ltr     Percent
  -------------------------------------------------------------------------------------------------
  WS02003060           JUNCTION     16.53    26.81     0  05:43       0.476       0.608       0.313
  WS02003066           JUNCTION      0.00    10.28     0  05:18           0       0.134       0.818
  WS02003067           JUNCTION      0.00    10.28     0  05:21           0       0.138       2.958
  WS02003069           JUNCTION      0.32    27.13     0  06:19     0.00922       0.616       0.534
  WS02003072           JUNCTION      0.00    27.13     0  07:25           0       0.612       0.981
  WS02003073           JUNCTION      1.82    28.95     0  07:47      0.0524       0.659       0.713
  WS02004401           JUNCTION      0.00    10.34     0  01:37           0       0.238       4.243
  WS02004402           JUNCTION      0.00    10.30     0  04:38           0       0.228       4.559
  WS02004403           JUNCTION      0.00    10.46     0  01:25           0       0.218       4.626
  WS02004404           JUNCTION      0.00    10.34     0  04:31           0       0.209       4.005
  WS02004405           JUNCTION      0.00    10.35     0  04:27           0       0.201       6.533
  WS02004406           JUNCTION      0.00    10.30     0  04:47           0       0.188      11.764
  WS02004407           JUNCTION      0.00    10.28     0  05:23           0       0.168       0.555
  WS02004409           JUNCTION      0.00    10.28     0  05:40           0       0.168       1.276
  WS02004410           JUNCTION      0.00    10.28     0  05:14           0       0.165       2.295
  WS02004411           JUNCTION      0.00    10.30     0  04:50           0       0.162       3.155
  WS02004412           JUNCTION      0.00    10.38     0  04:41           0       0.157       4.549
  WS02004413           JUNCTION      0.00    10.50     0  04:38           0        0.15       8.796
  WS02006109           JUNCTION      0.00    10.28     0  03:01           0       0.284       3.381
  WS02006110           JUNCTION      0.00    10.28     0  03:51           0       0.275       3.024
  WS02006111           JUNCTION      0.00    10.28     0  05:12           0       0.266       0.192
  WS02006112           JUNCTION      0.00    10.28     0  05:06           0       0.265       5.464
  WS02006113           JUNCTION      0.00    10.28     0  05:00           0       0.267       0.411
  WS02006115           JUNCTION      0.00    10.58     0  02:07           0       0.251       2.627
  WS02006116           JUNCTION      0.00    10.81     0  02:07           0       0.245       3.020
  WS02006228           JUNCTION      0.00    10.31     0  00:09           0        0.29       2.095
  WS02006229           JUNCTION      0.00    10.49     0  00:19           0       0.293       1.037
  WS02006230           JUNCTION     10.28    10.28     0  00:00       0.296       0.296       0.979
  WS02006231           JUNCTION      0.00     0.00     0  00:00           0           0       0.000 ltr
  WS02006232           JUNCTION      0.00     0.00     0  00:00           0           0       0.000 ltr
  WS02006234           JUNCTION      0.00     0.00     0  00:00           0           0       0.000 ltr
  WS02006235           JUNCTION      0.00     0.00     0  00:00           0           0       0.000 ltr
  WS02006238           JUNCTION      0.00     0.00     0  00:00           0           0       0.000 ltr
  WS02006239           JUNCTION      0.00     0.00     0  00:00           0           0       0.000 ltr
  WS02006240           JUNCTION      0.00     0.00     0  00:00           0           0       0.000 ltr
  WS02006242           JUNCTION      0.00     0.00     0  00:00           0           0       0.000 ltr
  WS02006243           JUNCTION      0.00     0.00     0  00:00           0           0       0.000 ltr
  WS02006245           JUNCTION      0.00     0.00     0  00:00           0           0       0.000 ltr
  WS02006247           JUNCTION      0.00     0.00     0  00:00           0           0       0.000 ltr
  WS02006248           JUNCTION      0.00     0.00     0  00:00           0           0       0.000 ltr
  WS02006249           JUNCTION      0.00     0.00     0  00:00           0           0       0.000 ltr
  WS02006251           JUNCTION      0.00     0.00     0  00:00           0           0       0.000 ltr
  WS02006252           JUNCTION      0.00     0.00     0  00:00           0           0       0.000 ltr
  WS02006256           JUNCTION      0.00     0.00     0  00:00           0           0       0.000 ltr
  WSF200               JUNCTION      0.00    10.28     0  05:32           0       0.133       0.298
  YS02001580           JUNCTION      0.00    77.99     0  01:16           0     0.00416      -0.058
  YS02001583           JUNCTION      0.00   120.51     0  01:16           0      0.0158      -4.558
  YS02001586           JUNCTION    329.08   329.17     0  01:45         2.1        2.11       0.060
  YS02001590           JUNCTION      0.00   318.12     0  01:41           0        2.09      -0.036
  YS02001593           JUNCTION      0.00   318.03     0  01:41           0        2.09       0.007
  YS02001596           JUNCTION      0.00   317.73     0  01:41           0        2.09      -0.014
  YS02001600           JUNCTION      0.00   317.80     0  01:41           0        2.09       0.013
  YS02001601           JUNCTION    538.35   854.72     0  01:28        2.87        4.96       0.015
  YS02001602           JUNCTION      0.00   538.46     0  01:15           0        3.69       0.012
  YS02001605           JUNCTION      0.00   538.62     0  01:15           0        3.63       0.012
  YS02001607           JUNCTION      0.00   538.77     0  01:15           0        3.63       0.045
  YS02001610           JUNCTION      0.00   544.82     0  01:16           0        3.62       0.069
  YS02001613           JUNCTION      0.00   550.52     0  01:16           0        3.62       0.045
  YS02001616           JUNCTION      0.00   556.42     0  01:16           0        3.63       0.008
  YS02001619           JUNCTION    554.56   942.21     0  01:53        3.37        6.99      -0.008
  YS02001622           JUNCTION      0.00   942.29     0  01:53           0        6.98      -0.005
  YS02001625           JUNCTION      0.00   942.33     0  01:53           0        6.98       0.149
  YS02001629           JUNCTION      0.00   942.36     0  01:53           0        6.98      -0.004
  YS02001633           JUNCTION    398.13  1320.31     0  01:26         2.1        9.08       0.031
  YS02001641           JUNCTION      0.00  1311.90     0  01:26           0        9.08       0.030
  YS02001644           JUNCTION    349.54  1660.39     0  01:26        1.82        10.9       0.026
  YS02001647           JUNCTION      0.00  1661.45     0  01:26           0        10.9       0.005
  YS02001649           JUNCTION      0.00  2001.73     0  01:37           0        12.5       0.003
  YS02001652           JUNCTION      0.00   470.26     0  01:34           0        1.67      -0.152
  YS02001655           JUNCTION      0.00   500.37     0  01:37           0        1.67       0.106
  YS02001658           JUNCTION      0.00   321.82     0  01:29           0        1.67       0.000
  YS02001661           JUNCTION      0.00   319.05     0  01:27           0        1.67       0.024
  YS02001664           JUNCTION    319.09   319.09     0  01:27        1.67        1.67      -0.007
  YS02001745           JUNCTION    202.22   202.22     0  01:26        1.01        1.01       0.011
  YS02001748           JUNCTION      0.00   202.19     0  01:26           0        1.01       0.000
  YS02001751           JUNCTION      0.00   292.25     0  01:38           0        1.01       0.117
  YS02001754           JUNCTION      0.00   378.22     0  01:35           0           1      -0.164
  YS02001757           JUNCTION      0.00  2904.85     0  01:26           0        17.1      -0.004
  YS02001759           JUNCTION    278.61   698.54     0  01:36        1.39         3.5      -0.011
  YS02001762           JUNCTION      0.00   477.59     0  01:38           0        2.11       0.002
  YS02001765           JUNCTION      0.00   471.90     0  01:38           0        2.11       0.004
  YS02001767           JUNCTION      0.00   458.32     0  01:46           0        2.11      -0.019
  YS02001770           JUNCTION    417.19   501.82     0  01:39        2.11         2.2      -0.007
  YS02001774           JUNCTION      0.00    87.24     0  01:42           0       0.144       0.732
  YS02001779           JUNCTION      0.00   110.63     0  01:39           0      0.0574       0.012
  YS02001783           JUNCTION      0.00  1141.79     0  01:25           0        6.49      -0.003
  YS02001784           JUNCTION      0.00  1141.86     0  01:26           0        6.49      -0.001
  YS02001786           JUNCTION      0.00  1141.75     0  01:25           0        6.49       0.003
  YS02001788           JUNCTION      0.00  1143.59     0  01:26           0        6.49       0.002
  YS02001790           JUNCTION      0.00  1149.91     0  01:33           0        6.49       0.043
  YS02001791           JUNCTION      0.00  1253.08     0  01:42           0        6.49      -0.038
  YS02001793           JUNCTION      0.00  1205.15     0  01:44           0        6.49       0.002
  YS02001882           JUNCTION      0.00    84.51     0  01:14           0      0.0167       1.780
  YS02001884           JUNCTION      0.00   135.36     0  01:13           0      0.0547       3.214
  YS02001887           JUNCTION    290.77   296.96     0  01:20        1.44        1.47       0.273
  YS02001890           JUNCTION      0.00   301.01     0  01:15           0        1.43       0.269
  YS02001895           JUNCTION      0.00   297.89     0  01:19           0        1.43       0.165
  YS02001898           JUNCTION      0.00   304.71     0  01:20           0        1.42      -0.102
  YS02001901           JUNCTION      0.00   298.56     0  01:24           0        1.43       0.176
  YS02001904           JUNCTION      0.00   299.31     0  01:24           0        1.44       0.138
  YS02001907           JUNCTION      0.00   955.66     0  01:27           0        4.52       0.356
  YS02001910           JUNCTION      0.00   665.31     0  01:27           0        3.07       0.201
  YS02001915           JUNCTION    385.56   665.08     0  01:27        2.01        3.08       0.011
  YS02001918           JUNCTION      0.00   279.16     0  01:27           0        1.06      -0.046
  YS02001920           JUNCTION      0.00   279.36     0  01:27           0        1.06       0.024
  YS02001923           JUNCTION      0.00   257.16     0  01:27           0        1.06      -0.019
  YS02001926           JUNCTION      0.00   230.34     0  01:27           0        1.06       0.043
  YS02001929           JUNCTION    194.25   194.25     0  01:29        1.06        1.06      -0.007
  YS02006553           JUNCTION      0.00   776.56     0  01:36           0        4.47       0.243
  YS02006556           JUNCTION      0.00   776.41     0  01:37           0        4.49       0.158
  YS02006558           JUNCTION    416.54  1142.55     0  01:28         2.1        6.54       0.033
  YS02006561           JUNCTION      0.00  1141.99     0  01:26           0        6.49       0.009
  YS02163301           JUNCTION      0.00   944.10     0  01:53           0        6.99       0.021
  YS02163601           JUNCTION      0.00  1320.49     0  01:26           0        9.07       0.057
  YS02164001           JUNCTION      0.00  1312.98     0  01:26           0        9.07       0.026
  CC-1                 OUTFALL       0.00 16161.72     0  00:00           0        9.47       0.000
  CC-2                 OUTFALL       0.00 17045.67     0  00:00           0        9.85       0.000
  JK-1                 OUTFALL       0.00  8590.66     0  00:00           0        3.34       0.000
  JK-2                 OUTFALL       0.00  8788.77     0  00:00           0         3.4       0.000
  WSC                  OUTFALL       0.00    28.95     0  07:50           0       0.654       0.000
  CC-storage           STORAGE       0.00  2746.58     0  01:31           0        19.3      -0.311
  JK-storage           STORAGE       0.00  1232.91     0  01:44           0        6.64      -1.538
  
  
  **********************
  Node Surcharge Summary
  **********************
  
  Surcharging occurs when water rises above the top of the highest conduit.
  ---------------------------------------------------------------------
                                               Max. Height   Min. Depth
                                   Hours       Above Crown    Below Rim
  Node                 Type      Surcharged         Meters       Meters
  ---------------------------------------------------------------------
  YS02001580           JUNCTION        1.16          0.450        0.000
  YS02001583           JUNCTION        1.19          0.500        0.000
  YS02001586           JUNCTION        1.77          0.510        0.000
  YS02001590           JUNCTION        1.83          0.750        0.000
  YS02001593           JUNCTION        1.83          0.708        0.132
  YS02001596           JUNCTION        1.91          0.959        0.111
  YS02001600           JUNCTION        1.98          1.190        0.000
  YS02001601           JUNCTION        2.16          1.440        0.000
  YS02001602           JUNCTION        2.10          1.270        0.000
  YS02001605           JUNCTION        2.07          1.180        0.000
  YS02001607           JUNCTION        1.77          0.668        0.012
  YS02001610           JUNCTION        1.79          0.680        0.000
  YS02001613           JUNCTION        1.77          0.700        0.000
  YS02001616           JUNCTION        1.73          0.610        0.000
  YS02001619           JUNCTION        1.71          0.610        0.000
  YS02001622           JUNCTION        1.69          0.620        0.000
  YS02001625           JUNCTION        1.85          0.780        0.000
  YS02001629           JUNCTION        1.02          0.470        0.000
  YS02001633           JUNCTION        1.86          0.945        0.115
  YS02001641           JUNCTION        1.79          0.821        0.279
  YS02001644           JUNCTION        1.74          0.626        0.294
  YS02001647           JUNCTION        0.30          0.325        0.575
  YS02001649           JUNCTION        0.44          0.336        0.714
  YS02001652           JUNCTION        0.01          0.358        0.772
  YS02001757           JUNCTION        0.40          0.216        0.994
  YS02001759           JUNCTION        0.15          0.267        0.943
  YS02001762           JUNCTION        0.10          0.166        0.984
  YS02001765           JUNCTION        0.01          0.098        1.002
  YS02001774           JUNCTION        0.13          0.096        0.954
  YS02001783           JUNCTION        1.03          0.451        1.149
  YS02001784           JUNCTION        0.94          0.363        1.127
  YS02001786           JUNCTION        0.48          0.068        1.362
  YS02001882           JUNCTION        0.66          0.717        0.113
  YS02001884           JUNCTION        0.72          0.738        0.132
  YS02001887           JUNCTION        1.00          0.787        0.163
  YS02001890           JUNCTION        1.04          0.760        0.000
  YS02001895           JUNCTION        0.62          0.582        0.168
  YS02001898           JUNCTION        0.61          0.559        0.181
  YS02001901           JUNCTION        0.88          0.696        0.174
  YS02001904           JUNCTION        0.79          0.649        0.201
  YS02001907           JUNCTION        1.81          0.950        0.000
  YS02001910           JUNCTION        1.10          1.100        0.000
  YS02001915           JUNCTION        0.67          1.000        0.000
  YS02001918           JUNCTION        0.45          0.810        0.000
  YS02001920           JUNCTION        0.48          0.797        0.343
  YS02006553           JUNCTION        1.82          0.958        0.232
  YS02006556           JUNCTION        1.29          0.876        0.474
  YS02006558           JUNCTION        1.26          0.850        0.550
  YS02006561           JUNCTION        0.38          0.063        1.087
  YS02163301           JUNCTION        1.84          0.857        0.173
  YS02163601           JUNCTION        1.87          1.003        0.077
  YS02164001           JUNCTION        1.80          0.901        0.199
  
  
  *********************
  Node Flooding Summary
  *********************
  
  Flooding refers to all water that overflows a node, whether it ponds or not.
  --------------------------------------------------------------------------
                                                             Total   Maximum
                                 Maximum   Time of Max       Flood    Ponded
                        Hours       Rate    Occurrence      Volume     Depth
  Node                 Flooded       LPS   days hr:min    10^6 ltr    Meters
  --------------------------------------------------------------------------
  YS02001580              0.01     28.16      0  01:16       0.000     0.000
  YS02001583              0.01     86.04      0  01:16       0.000     0.000
  YS02001586              0.37     57.64      0  01:16       0.008     0.000
  YS02001590              0.01      5.01      0  01:16       0.000     0.000
  YS02001600              0.01      1.31      0  01:16       0.000     0.000
  YS02001601              1.50    456.89      0  01:28       1.270     0.000
  YS02001602              0.43     61.86      0  01:32       0.062     0.000
  YS02001605              0.01      4.97      0  01:16       0.000     0.000
  YS02001610              0.16     40.79      0  01:16       0.006     0.000
  YS02001613              0.01      8.11      0  01:16       0.000     0.000
  YS02001616              0.01     18.23      0  01:16       0.000     0.000
  YS02001619              0.01      0.77      0  01:41       0.000     0.000
  YS02001622              0.01     40.36      0  01:16       0.000     0.000
  YS02001625              0.03     13.71      0  01:38       0.000     0.000
  YS02001629              0.01     83.97      0  01:16       0.000     0.000
  YS02001890              0.01     27.27      0  01:26       0.000     0.000
  YS02001907              0.19    230.68      0  01:27       0.056     0.000
  YS02001910              0.01      0.20      0  01:26       0.000     0.000
  YS02001915              0.01      0.33      0  01:26       0.000     0.000
  YS02001918              0.01      0.60      0  01:26       0.000     0.000
  
  
  **********************
  Storage Volume Summary
  **********************
  
  --------------------------------------------------------------------------------------------------
                         Average     Avg  Evap Exfil       Maximum     Max    Time of Max    Maximum
                          Volume    Pcnt  Pcnt  Pcnt        Volume    Pcnt     Occurrence    Outflow
  Storage Unit           1000 m3    Full  Loss  Loss       1000 m3    Full    days hr:min        LPS
  --------------------------------------------------------------------------------------------------
  CC-storage               0.307       5     0     0         2.229      35       0  00:00   32996.09
  JK-storage               0.005       2     0     0         0.151      52       0  00:00   17379.43
  
  
  ***********************
  Outfall Loading Summary
  ***********************
  
  -----------------------------------------------------------
                         Flow       Avg       Max       Total
                         Freq      Flow      Flow      Volume
  Outfall Node           Pcnt       LPS       LPS    10^6 ltr
  -----------------------------------------------------------
  CC-1                 100.00    692.96  16161.72       9.470
  CC-2                 100.00    721.04  17045.67       9.850
  JK-1                  95.20    255.60   8590.66       3.344
  JK-2                  95.22    259.98   8788.77       3.401
  WSC                   99.98     20.00     28.95       0.654
  -----------------------------------------------------------
  System                98.08   1949.58     28.95      26.719
  
  
  ********************
  Link Flow Summary
  ********************
  
  -----------------------------------------------------------------------------
                                 Maximum  Time of Max   Maximum    Max/    Max/
                                  |Flow|   Occurrence   |Veloc|    Full    Full
  Link                 Type          LPS  days hr:min     m/sec    Flow   Depth
  -----------------------------------------------------------------------------
  1                    CONDUIT     28.95     0  07:50      1.17    0.01    0.07
  WS02003060WS02003069 CONDUIT     26.81     0  06:19      0.77    0.01    0.08
  WS02003066WSF200     CONDUIT     10.28     0  05:32      0.89    0.00    0.03
  WS02003067WS02003066 CONDUIT     10.28     0  05:18      0.08    0.00    0.17
  WS02003069WS02003072 CONDUIT     27.13     0  07:25      0.62    0.01    0.10
  WS02003072WS02003073 CONDUIT     27.13     0  07:47      0.49    0.06    0.10
  WS02004401WS02004402 CONDUIT     10.30     0  04:38      0.34    0.01    0.38
  WS02004402WS02004403 CONDUIT     10.46     0  01:25      0.38    0.02    0.41
  WS02004403WS02004404 CONDUIT     10.34     0  04:31      0.37    0.01    0.47
  WS02004404WS02004405 CONDUIT     10.35     0  04:27      0.29    0.10    0.51
  WS02004405WS02004406 CONDUIT     10.30     0  04:47      0.30    0.02    0.52
  WS02004406WS02004407 CONDUIT     10.28     0  05:23      0.06    0.00    0.29
  WS02004407WS02004409 CONDUIT     10.28     0  05:40      0.50    0.00    0.08
  WS02004409WS02004410 CONDUIT     10.28     0  05:14      0.33    0.01    0.14
  WS02004410WS02004411 CONDUIT     10.30     0  04:50      0.31    0.01    0.18
  WS02004411WS02004412 CONDUIT     10.38     0  04:41      0.35    0.01    0.22
  WS02004412WS02004413 CONDUIT     10.50     0  04:38      0.28    0.01    0.32
  WS02004413WS02003067 CONDUIT     10.28     0  05:21      0.08    0.00    0.23
  WS02006109WS02006110 CONDUIT     10.28     0  03:51      0.20    0.02    0.38
  WS02006110WS02006113 CONDUIT     10.28     0  05:00      0.09    0.01    0.27
  WS02006111WS02006112 CONDUIT     10.28     0  05:06      0.65    0.00    0.31
  WS02006112WS02006115 CONDUIT     10.58     0  02:07      0.09    0.01    0.34
  WS02006113WS02006111 CONDUIT     10.28     0  05:12      0.65    0.01    0.07
  WS02006115WS02006116 CONDUIT     10.81     0  02:07      0.44    0.01    0.24
  WS02006116WS02004401 CONDUIT     10.34     0  01:37      0.34    0.01    0.34
  WS02006228WS02006109 CONDUIT     10.28     0  03:01      0.32    0.04    0.39
  WS02006229WS02006228 CONDUIT     10.31     0  00:09      0.42    0.03    0.34
  WS02006230WS02006229 CONDUIT     10.49     0  00:19      0.36    0.23    0.31
  WS02006231WS02006230 CONDUIT      0.00     0  00:00      0.00    0.00    0.00
  WS02006232WS02006231 CONDUIT      0.00     0  00:00      0.00    0.00    0.00
  WS02006234WS02006232 CONDUIT      0.00     0  00:00      0.00    0.00    0.00
  WS02006235WS02006234 CONDUIT      0.00     0  00:00      0.00    0.00    0.00
  WS02006238WS02006235 CONDUIT      0.00     0  00:00      0.00    0.00    0.00
  WS02006239WS02006238 CONDUIT      0.00     0  00:00      0.00    0.00    0.00
  WS02006240WS02006239 CONDUIT      0.00     0  00:00      0.00    0.00    0.00
  WS02006242WS02006240 CONDUIT      0.00     0  00:00      0.00    0.00    0.00
  WS02006243WS02006242 CONDUIT      0.00     0  00:00      0.00    0.00    0.00
  WS02006245WS02006243 CONDUIT      0.00     0  00:00      0.00    0.00    0.00
  WS02006247WS02006245 CONDUIT      0.00     0  00:00      0.00    0.00    0.00
  WS02006248WS02006247 CONDUIT      0.00     0  00:00      0.00    0.00    0.00
  WS02006249WS02006248 CONDUIT      0.00     0  00:00      0.00    0.00    0.00
  WS02006251WS02006249 CONDUIT      0.00     0  00:00      0.00    0.00    0.00
  WS02006252WS02006251 CONDUIT      0.00     0  00:00      0.00    0.00    0.00
  WS02006256WS02006235 CONDUIT      0.00     0  00:00      0.00    0.00    0.00
  WSF200WS02003060     CONDUIT     10.28     0  05:43      0.43    0.00    0.05
  YS02001580YS02001583 CONDUIT     77.99     0  01:16      0.57    0.30    1.00
  YS02001583YS02001586 CONDUIT    120.51     0  01:16      0.52    0.18    1.00
  YS02001586YS02001590 CONDUIT    318.12     0  01:41      1.26    0.56    1.00
  YS02001590YS02001593 CONDUIT    318.03     0  01:41      1.12    2.00    1.00
  YS02001593YS02001596 CONDUIT    317.73     0  01:41      1.73    0.50    1.00
  YS02001596YS02001600 CONDUIT    317.80     0  01:41      1.24    0.62    1.00
  YS02001600YS02001601 CONDUIT    317.84     0  01:41      1.12    0.55    1.00
  YS02001601YS02001602 CONDUIT    538.46     0  01:15      1.90    1.94    1.00
  YS02001602YS02001605 CONDUIT    538.62     0  01:15      1.90   11.40    1.00
  YS02001605YS02001607 CONDUIT    538.77     0  01:15      1.91    2.95    1.00
  YS02001607YS02001610 CONDUIT    544.82     0  01:16      0.76    0.52    1.00
  YS02001610YS02001613 CONDUIT    550.52     0  01:16      0.72    0.63    1.00
  YS02001613YS02001616 CONDUIT    556.42     0  01:16      0.75    0.48    1.00
  YS02001616YS02001619 CONDUIT    535.29     0  01:16      0.81    0.93    1.00
  YS02001619YS02001622 CONDUIT    942.29     0  01:53      1.69    1.39    1.00
  YS02001622YS02001625 CONDUIT    942.33     0  01:53      1.20    0.50    1.00
  YS02001625YS02001629 CONDUIT    942.36     0  01:53      1.20    0.45    1.00
  YS02001629YS02163301 CONDUIT    944.10     0  01:53      1.20    1.16    1.00
  YS02001633YS02163601 CONDUIT   1320.49     0  01:26      1.68    1.39    1.00
  YS02001641YS02001644 CONDUIT   1312.16     0  01:26      1.67    4.24    1.00
  YS02001644YS02001647 CONDUIT   1661.45     0  01:26      2.15    0.98    1.00
  YS02001647YS02001649 CONDUIT   1680.62     0  01:26      2.30    0.89    1.00
  YS02001649YS02001757 CONDUIT   2003.38     0  01:41      2.55    1.22    1.00
  YS02001652YS02001649 CONDUIT    420.41     0  01:37      1.27    0.21    1.00
  YS02001655YS02001652 CONDUIT    470.26     0  01:34      1.71    0.23    0.87
  YS02001658YS02001655 CONDUIT    500.37     0  01:37      1.89    0.21    0.59
  YS02001661YS02001658 CONDUIT    321.82     0  01:29      2.15    0.13    0.34
  YS02001664YS02001661 CONDUIT    319.05     0  01:27      1.95    0.10    0.27
  YS02001745YS02001748 CONDUIT    202.19     0  01:26      1.97    0.08    0.22
  YS02001748YS02001751 CONDUIT    292.25     0  01:38      1.62    0.15    0.44
  YS02001751YS02001754 CONDUIT    378.22     0  01:35      1.57    0.18    0.65
  YS02001754YS02001757 CONDUIT    344.40     0  01:39      0.83    0.14    0.93
  YS02001757CaochengTiaoxuchi CONDUIT   2746.58     0  01:31      6.11    1.19    0.59
  YS02001759YS02001757 CONDUIT    708.14     0  01:40      1.15    0.50    1.00
  YS02001762YS02001759 CONDUIT    459.75     0  01:36      0.68    0.53    1.00
  YS02001765YS02001762 CONDUIT    477.59     0  01:38      0.80    0.45    1.00
  YS02001767YS02001765 CONDUIT    471.90     0  01:38      0.91    0.59    0.99
  YS02001770YS02001767 CONDUIT    458.32     0  01:46      0.88    1.82    0.99
  YS02001774YS02001770 CONDUIT    140.10     0  01:39      0.67    0.09    0.99
  YS02001779YS02001774 CONDUIT    110.63     0  01:39      0.17    0.06    0.91
  YS02001783YS02001784 CONDUIT   1141.86     0  01:26      2.27    1.57    1.00
  YS02001784YS02001785 CONDUIT   1141.75     0  01:25      2.27    2.66    1.00
  YS02001786YS02001788 CONDUIT   1143.59     0  01:26      2.45    2.20    0.88
  YS02001788YS02001790 CONDUIT   1149.91     0  01:33      2.69    0.85    0.82
  YS02001790YS02001791 CONDUIT   1253.08     0  01:42      3.39    1.36    0.69
  YS02001791YS02001793 CONDUIT   1205.15     0  01:44      6.68    0.52    0.40
  YS02001793JiankangQianchi CONDUIT   1232.91     0  01:44     10.58    0.10    0.50
  YS02001882YS02001884 CONDUIT     84.51     0  01:14      0.40    0.10    1.00
  YS02001884YS02001887 CONDUIT    135.36     0  01:13      0.35    0.18    1.00
  YS02001887YS02001890 CONDUIT    301.01     0  01:15      0.46    0.52    1.00
  YS02001890YS02001895 CONDUIT    297.89     0  01:19      0.44    0.14    1.00
  YS02001895YS02001898 CONDUIT    304.71     0  01:20      0.74    0.53    1.00
  YS02001898YS02001901 CONDUIT    298.56     0  01:24      0.72    0.19    1.00
  YS02001901YS02001904 CONDUIT    299.31     0  01:24      0.39    0.46    1.00
  YS02001904YS02001907 CONDUIT    300.06     0  01:24      0.38    0.11    1.00
  YS02001907YS02006553 CONDUIT    776.56     0  01:36      0.86    0.91    1.00
  YS02001910YS02001907 CONDUIT    665.23     0  01:27      0.85    0.37    1.00
  YS02001915YS02001910 CONDUIT    665.31     0  01:27      1.24    0.33    1.00
  YS02001918YS02001915 CONDUIT    279.53     0  01:27      0.44    0.15    1.00
  YS02001920YS02001918 CONDUIT    279.16     0  01:27      0.70    0.27    1.00
  YS02001923YS02001920 CONDUIT    279.36     0  01:27      0.80    0.13    1.00
  YS02001926YS02001923 CONDUIT    257.16     0  01:27      0.92    0.37    0.92
  YS02001929YS02001926 CONDUIT    230.34     0  01:27      1.03    0.11    0.82
  YS02006553YS02006556 CONDUIT    776.41     0  01:37      0.99    0.66    1.00
  YS02006556YS02006558 CONDUIT    776.58     0  01:37      0.99    0.61    1.00
  YS02006558YS02006561 CONDUIT   1141.99     0  01:26      4.04    2.52    1.00
  YS02006561YS02001783 CONDUIT   1141.79     0  01:25      2.27    0.59    1.00
  YS02163301YS02001633 CONDUIT    944.16     0  01:53      1.20    0.89    1.00
  YS02163601YS02164001 CONDUIT   1312.98     0  01:26      1.67    1.16    1.00
  YS02164001YS02001641 CONDUIT   1311.90     0  01:26      1.67    1.79    1.00
  2                    CONDUIT  16161.72     0  00:00     26.41    0.88    0.73
  3                    CONDUIT  17045.67     0  00:00     27.65    0.89    0.73
  4                    CONDUIT      0.00     0  00:00      0.00    0.00    0.40
  5                    CONDUIT   8590.66     0  00:00     10.94    1.24    1.00
  6                    CONDUIT   8788.77     0  00:00     11.19    1.25    1.00
  7                    CONDUIT      0.00     0  00:00      0.00    0.00    0.50
  
  
  ***************************
  Flow Classification Summary
  ***************************
  
  -------------------------------------------------------------------------------------
                      Adjusted    ---------- Fraction of Time in Flow Class ---------- 
                       /Actual         Up    Down  Sub   Sup   Up    Down  Norm  Inlet 
  Conduit               Length    Dry  Dry   Dry   Crit  Crit  Crit  Crit  Ltd   Ctrl  
  -------------------------------------------------------------------------------------
  1                       1.00   0.00  0.00  0.00  0.00  1.00  0.00  0.00  0.92  0.00
  WS02003060WS02003069    1.00   0.00  0.00  0.00  0.98  0.02  0.00  0.00  0.99  0.00
  WS02003066WSF200        1.00   0.79  0.00  0.00  0.00  0.21  0.00  0.00  0.45  0.00
  WS02003067WS02003066    1.00   0.76  0.02  0.00  0.22  0.00  0.00  0.00  0.00  0.00
  WS02003069WS02003072    1.00   0.00  0.00  0.00  0.99  0.01  0.00  0.00  0.99  0.00
  WS02003072WS02003073    1.00   0.00  0.00  0.00  0.00  0.00  0.00  1.00  0.00  0.00
  WS02004401WS02004402    1.00   0.10  0.00  0.00  0.90  0.00  0.00  0.00  0.05  0.00
  WS02004402WS02004403    1.00   0.10  0.00  0.00  0.90  0.00  0.00  0.00  0.00  0.00
  WS02004403WS02004404    1.00   0.10  0.00  0.00  0.90  0.00  0.00  0.00  0.03  0.00
  WS02004404WS02004405    1.00   0.10  0.00  0.00  0.90  0.00  0.00  0.00  0.00  0.00
  WS02004405WS02004406    1.00   0.10  0.00  0.00  0.90  0.00  0.00  0.00  0.00  0.00
  WS02004406WS02004407    1.00   0.11  0.50  0.00  0.40  0.00  0.00  0.00  0.00  0.00
  WS02004407WS02004409    1.00   0.61  0.00  0.00  0.39  0.00  0.00  0.00  0.61  0.00
  WS02004409WS02004410    1.00   0.61  0.00  0.00  0.39  0.00  0.00  0.00  0.05  0.00
  WS02004410WS02004411    1.00   0.61  0.00  0.00  0.39  0.00  0.00  0.00  0.05  0.00
  WS02004411WS02004412    1.00   0.61  0.00  0.00  0.39  0.00  0.00  0.00  0.00  0.00
  WS02004412WS02004413    1.00   0.62  0.00  0.00  0.38  0.00  0.00  0.00  0.05  0.00
  WS02004413WS02003067    1.00   0.63  0.13  0.00  0.00  0.00  0.25  0.00  0.00  0.00
  WS02006109WS02006110    1.00   0.01  0.02  0.00  0.96  0.00  0.01  0.00  0.00  0.00
  WS02006110WS02006113    1.00   0.03  0.04  0.00  0.93  0.00  0.00  0.00  0.00  0.00
  WS02006111WS02006112    1.00   0.08  0.00  0.00  0.92  0.00  0.00  0.00  0.91  0.00
  WS02006112WS02006115    1.00   0.08  0.02  0.00  0.90  0.00  0.00  0.00  0.00  0.00
  WS02006113WS02006111    1.00   0.07  0.00  0.00  0.02  0.91  0.00  0.00  0.00  0.00
  WS02006115WS02006116    1.00   0.10  0.00  0.00  0.69  0.00  0.00  0.21  0.01  0.00
  WS02006116WS02004401    1.00   0.10  0.00  0.00  0.90  0.00  0.00  0.00  0.01  0.00
  WS02006228WS02006109    1.00   0.00  0.00  0.00  0.97  0.00  0.00  0.02  0.00  0.00
  WS02006229WS02006228    1.00   0.00  0.00  0.00  0.97  0.00  0.00  0.03  0.00  0.00
  WS02006230WS02006229    1.00   0.00  0.00  0.00  0.95  0.00  0.00  0.05  0.00  0.00
  WS02006231WS02006230    1.00   1.00  0.00  0.00  0.00  0.00  0.00  0.00  0.00  0.00
  WS02006232WS02006231    1.00   1.00  0.00  0.00  0.00  0.00  0.00  0.00  0.00  0.00
  WS02006234WS02006232    1.00   1.00  0.00  0.00  0.00  0.00  0.00  0.00  0.00  0.00
  WS02006235WS02006234    1.00   1.00  0.00  0.00  0.00  0.00  0.00  0.00  0.00  0.00
  WS02006238WS02006235    1.00   1.00  0.00  0.00  0.00  0.00  0.00  0.00  0.00  0.00
  WS02006239WS02006238    1.00   1.00  0.00  0.00  0.00  0.00  0.00  0.00  0.00  0.00
  WS02006240WS02006239    1.00   1.00  0.00  0.00  0.00  0.00  0.00  0.00  0.00  0.00
  WS02006242WS02006240    1.00   1.00  0.00  0.00  0.00  0.00  0.00  0.00  0.00  0.00
  WS02006243WS02006242    1.00   1.00  0.00  0.00  0.00  0.00  0.00  0.00  0.00  0.00
  WS02006245WS02006243    1.00   1.00  0.00  0.00  0.00  0.00  0.00  0.00  0.00  0.00
  WS02006247WS02006245    1.00   1.00  0.00  0.00  0.00  0.00  0.00  0.00  0.00  0.00
  WS02006248WS02006247    1.00   1.00  0.00  0.00  0.00  0.00  0.00  0.00  0.00  0.00
  WS02006249WS02006248    1.00   1.00  0.00  0.00  0.00  0.00  0.00  0.00  0.00  0.00
  WS02006251WS02006249    1.00   1.00  0.00  0.00  0.00  0.00  0.00  0.00  0.00  0.00
  WS02006252WS02006251    1.00   1.00  0.00  0.00  0.00  0.00  0.00  0.00  0.00  0.00
  WS02006256WS02006235    1.00   1.00  0.00  0.00  0.00  0.00  0.00  0.00  0.00  0.00
  WSF200WS02003060        1.00   0.00  0.79  0.00  0.21  0.00  0.00  0.00  0.46  0.00
  YS02001580YS02001583    1.00   0.12  0.27  0.00  0.61  0.00  0.00  0.00  0.61  0.00
  YS02001583YS02001586    1.00   0.20  0.15  0.00  0.65  0.00  0.00  0.00  0.62  0.00
  YS02001586YS02001590    1.00   0.10  0.00  0.00  0.73  0.02  0.00  0.15  0.27  0.00
  YS02001590YS02001593    1.00   0.10  0.00  0.00  0.50  0.00  0.40  0.00  0.00  0.00
  YS02001593YS02001596    1.00   0.10  0.00  0.00  0.51  0.01  0.00  0.38  0.01  0.00
  YS02001596YS02001600    1.00   0.10  0.00  0.00  0.56  0.01  0.00  0.33  0.03  0.00
  YS02001600YS02001601    1.00   0.10  0.00  0.00  0.90  0.00  0.00  0.00  0.54  0.00
  YS02001601YS02001602    1.00   0.10  0.00  0.00  0.90  0.00  0.00  0.00  0.00  0.00
  YS02001602YS02001605    1.00   0.10  0.00  0.00  0.90  0.00  0.00  0.00  0.00  0.00
  YS02001605YS02001607    1.00   0.10  0.00  0.00  0.90  0.00  0.00  0.00  0.00  0.00
  YS02001607YS02001610    1.00   0.10  0.00  0.00  0.90  0.00  0.00  0.00  0.00  0.00
  YS02001610YS02001613    1.00   0.10  0.00  0.00  0.90  0.00  0.00  0.00  0.00  0.00
  YS02001613YS02001616    1.00   0.10  0.00  0.00  0.90  0.00  0.00  0.00  0.00  0.00
  YS02001616YS02001619    1.00   0.10  0.00  0.00  0.90  0.00  0.00  0.00  0.00  0.00
  YS02001619YS02001622    1.00   0.10  0.00  0.00  0.90  0.00  0.00  0.00  0.26  0.00
  YS02001622YS02001625    1.00   0.10  0.00  0.00  0.90  0.00  0.00  0.00  0.01  0.00
  YS02001625YS02001629    1.00   0.10  0.01  0.00  0.53  0.00  0.37  0.00  0.00  0.00
  YS02001629YS02163301    1.00   0.10  0.00  0.00  0.90  0.00  0.00  0.00  0.00  0.00
  YS02001633YS02163601    1.00   0.10  0.00  0.00  0.90  0.00  0.00  0.00  0.00  0.00
  YS02001641YS02001644    1.00   0.10  0.00  0.00  0.90  0.00  0.00  0.00  0.00  0.00
  YS02001644YS02001647    1.00   0.10  0.00  0.00  0.90  0.00  0.00  0.00  0.00  0.00
  YS02001647YS02001649    1.00   0.10  0.00  0.00  0.63  0.27  0.00  0.00  0.54  0.00
  YS02001649YS02001757    1.00   0.02  0.08  0.00  0.69  0.21  0.00  0.00  0.63  0.00
  YS02001652YS02001649    1.00   0.10  0.00  0.00  0.89  0.00  0.00  0.00  0.56  0.00
  YS02001655YS02001652    1.00   0.10  0.00  0.00  0.56  0.01  0.00  0.34  0.06  0.00
  YS02001658YS02001655    1.00   0.10  0.00  0.00  0.54  0.35  0.00  0.00  0.72  0.00
  YS02001661YS02001658    1.00   0.10  0.00  0.00  0.21  0.69  0.00  0.00  0.78  0.00
  YS02001664YS02001661    1.00   0.10  0.00  0.00  0.39  0.51  0.00  0.00  0.87  0.00
  YS02001745YS02001748    1.00   0.10  0.00  0.00  0.00  0.05  0.00  0.85  0.02  0.00
  YS02001748YS02001751    1.00   0.10  0.00  0.00  0.46  0.44  0.00  0.00  0.74  0.00
  YS02001751YS02001754    1.00   0.10  0.00  0.00  0.51  0.01  0.00  0.39  0.13  0.00
  YS02001754YS02001757    1.00   0.02  0.08  0.00  0.90  0.00  0.00  0.00  0.62  0.00
  YS02001757CaochengTiaoxuchi    1.00   0.00  0.02  0.00  0.08  0.90  0.00  0.00  0.19  0.00
  YS02001759YS02001757    1.00   0.02  0.07  0.00  0.90  0.00  0.00  0.00  0.49  0.00
  YS02001762YS02001759    1.00   0.10  0.00  0.00  0.90  0.00  0.00  0.00  0.02  0.00
  YS02001765YS02001762    1.00   0.10  0.00  0.00  0.90  0.00  0.00  0.00  0.56  0.00
  YS02001767YS02001765    1.00   0.10  0.00  0.00  0.90  0.00  0.00  0.00  0.00  0.00
  YS02001770YS02001767    1.00   0.10  0.00  0.00  0.90  0.00  0.00  0.00  0.00  0.00
  YS02001774YS02001770    1.00   0.10  0.00  0.00  0.81  0.00  0.09  0.00  0.00  0.00
  YS02001779YS02001774    1.00   0.10  0.26  0.00  0.64  0.00  0.00  0.00  0.59  0.00
  YS02001783YS02001784    1.00   0.11  0.00  0.00  0.89  0.00  0.00  0.00  0.54  0.00
  YS02001784YS02001785    1.00   0.11  0.00  0.00  0.89  0.00  0.00  0.00  0.35  0.00
  YS02001786YS02001788    1.00   0.11  0.00  0.00  0.49  0.40  0.00  0.00  0.00  0.00
  YS02001788YS02001790    1.00   0.11  0.00  0.00  0.11  0.78  0.00  0.00  0.60  0.00
  YS02001790YS02001791    1.00   0.11  0.00  0.00  0.00  0.89  0.00  0.00  0.12  0.00
  YS02001791YS02001793    1.00   0.11  0.00  0.00  0.00  0.89  0.00  0.00  0.00  0.00
  YS02001793JiankangQianchi    1.00   0.00  0.11  0.00  0.00  0.89  0.00  0.00  0.06  0.00
  YS02001882YS02001884    1.00   0.10  0.00  0.00  0.90  0.00  0.00  0.00  0.00  0.00
  YS02001884YS02001887    1.00   0.10  0.00  0.00  0.90  0.00  0.00  0.00  0.00  0.00
  YS02001887YS02001890    1.00   0.10  0.00  0.00  0.90  0.00  0.00  0.00  0.00  0.00
  YS02001890YS02001895    1.00   0.10  0.00  0.00  0.90  0.00  0.00  0.00  0.00  0.00
  YS02001895YS02001898    1.00   0.10  0.00  0.00  0.89  0.00  0.00  0.00  0.00  0.00
  YS02001898YS02001901    1.00   0.10  0.00  0.00  0.90  0.00  0.00  0.00  0.00  0.00
  YS02001901YS02001904    1.00   0.10  0.00  0.00  0.90  0.00  0.00  0.00  0.00  0.00
  YS02001904YS02001907    1.00   0.10  0.00  0.00  0.90  0.00  0.00  0.00  0.00  0.00
  YS02001907YS02006553    1.00   0.10  0.00  0.00  0.90  0.00  0.00  0.00  0.00  0.00
  YS02001910YS02001907    1.00   0.10  0.00  0.00  0.90  0.00  0.00  0.00  0.00  0.00
  YS02001915YS02001910    1.00   0.10  0.00  0.00  0.90  0.01  0.00  0.00  0.00  0.00
  YS02001918YS02001915    1.00   0.10  0.01  0.00  0.90  0.00  0.00  0.00  0.62  0.00
  YS02001920YS02001918    1.00   0.10  0.00  0.00  0.90  0.00  0.00  0.00  0.00  0.00
  YS02001923YS02001920    1.00   0.10  0.00  0.00  0.90  0.00  0.00  0.00  0.71  0.00
  YS02001926YS02001923    1.00   0.10  0.00  0.00  0.19  0.00  0.71  0.00  0.00  0.00
  YS02001929YS02001926    1.00   0.10  0.00  0.00  0.90  0.00  0.00  0.00  0.80  0.00
  YS02006553YS02006556    1.00   0.10  0.00  0.00  0.90  0.00  0.00  0.00  0.00  0.00
  YS02006556YS02006558    1.00   0.10  0.00  0.00  0.90  0.00  0.00  0.00  0.00  0.00
  YS02006558YS02006561    1.00   0.10  0.00  0.00  0.15  0.74  0.00  0.00  0.12  0.00
  YS02006561YS02001783    1.00   0.11  0.00  0.00  0.40  0.49  0.00  0.00  0.61  0.00
  YS02163301YS02001633    1.00   0.10  0.00  0.00  0.90  0.00  0.00  0.00  0.00  0.00
  YS02163601YS02164001    1.00   0.10  0.00  0.00  0.90  0.00  0.00  0.00  0.00  0.00
  YS02164001YS02001641    1.00   0.10  0.00  0.00  0.90  0.00  0.00  0.00  0.00  0.00
  2                       1.00   0.00  0.00  0.00  0.00  1.00  0.00  0.00  0.12  0.00
  3                       1.00   0.00  0.00  0.00  0.00  1.00  0.00  0.00  0.08  0.00
  4                       1.00   0.00  1.00  0.00  0.00  0.00  0.00  0.00  0.00  0.00
  5                       1.00   0.00  0.00  0.00  0.03  0.97  0.00  0.00  0.30  0.00
  6                       1.00   0.00  0.00  0.00  0.03  0.97  0.00  0.00  0.31  0.00
  7                       1.00   0.00  1.00  0.00  0.00  0.00  0.00  0.00  0.00  0.00
  
  
  *************************
  Conduit Surcharge Summary
  *************************
  
  ----------------------------------------------------------------------------
                                                           Hours        Hours 
                         --------- Hours Full --------   Above Full   Capacity
  Conduit                Both Ends  Upstream  Dnstream   Normal Flow   Limited
  ----------------------------------------------------------------------------
  YS02001580YS02001583        1.16      1.16      1.52      0.01         0.01
  YS02001583YS02001586        1.19      1.19      1.77      0.01         0.01
  YS02001586YS02001590        1.78      1.78      1.83      0.01         0.01
  YS02001590YS02001593        1.83      1.83      1.85      1.84         0.01
  YS02001593YS02001596        1.84      1.84      1.91      0.01         0.01
  YS02001596YS02001600        1.94      1.94      1.98      0.01         0.01
  YS02001600YS02001601        2.01      2.01      2.16      0.01         0.01
  YS02001601YS02001602        2.10      2.10      2.19      2.00         0.01
  YS02001602YS02001605        2.07      2.07      2.10      2.72         0.01
  YS02001605YS02001607        2.04      2.07      2.04      2.14         2.04
  YS02001607YS02001610        1.77      1.77      1.79      0.01         0.01
  YS02001610YS02001613        1.77      1.77      1.79      0.01         0.01
  YS02001613YS02001616        1.73      1.73      1.77      0.01         0.01
  YS02001616YS02001619        1.71      1.71      1.73      0.01         0.01
  YS02001619YS02001622        1.69      1.71      1.69      1.85         1.69
  YS02001622YS02001625        1.69      1.69      1.85      0.01         0.01
  YS02001625YS02001629        1.02      1.02      1.85      0.01         0.01
  YS02001629YS02163301        1.84      1.84      1.84      1.77         1.72
  YS02001633YS02163601        1.86      1.86      1.87      1.78         1.78
  YS02001641YS02001644        1.74      1.79      1.74      2.19         1.74
  YS02001644YS02001647        0.30      0.30      1.74      0.01         0.01
  YS02001647YS02001649        0.30      0.30      0.44      0.01         0.01
  YS02001649YS02001757        0.40      0.44      0.40      1.02         0.39
  YS02001652YS02001649        0.04      0.04      0.44      0.01         0.01
  YS02001655YS02001652        0.01      0.01      0.01      0.01         0.01
  YS02001754YS02001757        0.01      0.01      0.40      0.01         0.01
  YS02001757CaochengTiaoxuchi        0.01      0.40      0.01      0.94         0.01
  YS02001759YS02001757        0.15      0.15      0.40      0.01         0.01
  YS02001762YS02001759        0.10      0.10      0.15      0.01         0.01
  YS02001765YS02001762        0.01      0.01      0.10      0.01         0.01
  YS02001767YS02001765        0.01      0.01      0.01      0.01         0.01
  YS02001770YS02001767        0.01      0.01      0.01      1.15         0.01
  YS02001774YS02001770        0.01      0.01      0.13      0.01         0.01
  YS02001779YS02001774        0.01      0.01      0.13      0.01         0.01
  YS02001783YS02001784        0.93      1.03      0.93      1.35         0.93
  YS02001784YS02001785        0.48      0.93      0.48      1.91         0.48
  YS02001786YS02001788        0.01      0.48      0.01      1.83         0.01
  YS02001790YS02001791        0.01      0.01      0.01      0.82         0.01
  YS02001882YS02001884        0.66      0.66      0.72      0.01         0.01
  YS02001884YS02001887        0.89      0.89      1.00      0.01         0.01
  YS02001887YS02001890        1.04      1.04      1.06      0.01         0.01
  YS02001890YS02001895        0.62      0.62      1.10      0.01         0.01
  YS02001895YS02001898        0.61      0.61      0.62      0.01         0.01
  YS02001898YS02001901        0.64      0.64      0.88      0.01         0.01
  YS02001901YS02001904        0.79      0.79      0.88      0.01         0.01
  YS02001904YS02001907        0.79      0.79      1.82      0.01         0.01
  YS02001907YS02006553        1.91      1.91      1.94      0.01         0.01
  YS02001910YS02001907        1.10      1.10      1.81      0.01         0.01
  YS02001915YS02001910        0.67      0.67      1.10      0.01         0.01
  YS02001918YS02001915        0.45      0.45      0.67      0.01         0.01
  YS02001920YS02001918        0.45      0.45      0.48      0.01         0.01
  YS02001923YS02001920        0.34      0.34      0.48      0.01         0.01
  YS02006553YS02006556        1.29      1.29      1.82      0.01         0.01
  YS02006556YS02006558        1.61      1.61      1.84      0.01         0.01
  YS02006558YS02006561        0.52      1.26      0.52      1.88         0.52
  YS02006561YS02001783        0.38      0.38      1.03      0.01         0.01
  YS02163301YS02001633        1.84      1.84      1.87      0.01         0.01
  YS02163601YS02164001        1.80      1.80      1.87      1.18         0.01
  YS02164001YS02001641        1.79      1.80      1.79      1.91         1.79
  5                           0.01      0.01      0.01      0.01         0.01
  6                           0.01      0.01      0.01      0.01         0.01
  

  Analysis begun on:  Thu Sep  7 11:20:09 2023
  Analysis ended on:  Thu Sep  7 11:20:33 2023
  Total elapsed time: 00:00:24