
  OWA STORM WATER MANAGEMENT MODEL - VERSION v5.1.14 (OWA 2022-07-31)
  --------------------------------------------------------------

  WARNING 04: minimum elevation drop used for Conduit WS02004404WS02004405
  WARNING 03: negative offset ignored for Link YS02001904YS02001907
  
  *********************************************************
  NOTE: The summary statistics displayed in this report are
  based on results found at every computational time step,  
  not just on results from each reporting time step.
  *********************************************************
  
  ****************
  Analysis Options
  ****************
  Flow Units ............... LPS
  Process Models:
    Rainfall/Runoff ........ YES
    RDII ................... NO
    Snowmelt ............... NO
    Groundwater ............ NO
    Flow Routing ........... YES
    Ponding Allowed ........ NO
    Water Quality .......... NO
  Infiltration Method ...... HORTON
  Flow Routing Method ...... DYNWAVE
  Surcharge Method ......... EXTRAN
  Starting Date ............ 08/28/2015 08:00:00
  Ending Date .............. 08/28/2015 16:00:00
  Antecedent Dry Days ...... 8.0
  Report Time Step ......... 00:01:00
  Wet Time Step ............ 00:01:00
  Dry Time Step ............ 00:01:00
  Routing Time Step ........ 30.00 sec
  Variable Time Step ....... YES
  Maximum Trials ........... 8
  Number of Threads ........ 4
  Head Tolerance ........... 0.001500 m
  
  
  **************************        Volume         Depth
  Runoff Quantity Continuity     hectare-m            mm
  **************************     ---------       -------
  Initial LID Storage ......         0.072         1.184
  Total Precipitation ......         6.729       111.087
  Evaporation Loss .........         0.000         0.000
  Infiltration Loss ........         0.212         3.492
  Surface Runoff ...........         5.332        88.021
  Final Storage ............         1.259        20.786
  Continuity Error (%) .....        -0.025
  
  
  **************************        Volume        Volume
  Flow Routing Continuity        hectare-m      10^6 ltr
  **************************     ---------     ---------
  Dry Weather Inflow .......         0.630         6.296
  Wet Weather Inflow .......         5.332        53.316
  Groundwater Inflow .......         0.000         0.000
  RDII Inflow ..............         0.000         0.000
  External Inflow ..........         0.105         1.045
  External Outflow .........         2.861        28.615
  Flooding Loss ............         3.167        31.670
  Evaporation Loss .........         0.000         0.000
  Exfiltration Loss ........         0.000         0.000
  Initial Stored Volume ....         0.303         3.031
  Final Stored Volume ......         0.348         3.477
  Continuity Error (%) .....        -0.116
  
  
  *************************
  Highest Continuity Errors
  *************************
  Node YS02001884 (4.88%)
  Node YS02001583 (-4.63%)
  Node HS02004842 (1.75%)
  
  
  ***************************
  Time-Step Critical Elements
  ***************************
  Link WS02006280WS02006229 (45.17%)
  Link WS02006238WS02006235 (10.12%)
  Link YS02001791YS02001793 (10.01%)
  Link WS02006252WS02006251 (9.74%)
  Link WS02004404WS02004405 (6.75%)
  
  
  ********************************
  Highest Flow Instability Indexes
  ********************************
  Link WS02006238WS02006235 (26)
  Link YS02001607YS02001610 (24)
  Link WS02006113WS02006111 (23)
  Link WS02004404WS02004405 (23)
  Link YS02001602YS02001605 (23)
  
  
  *************************
  Routing Time Step Summary
  *************************
  Minimum Time Step           :     0.02 sec
  Average Time Step           :     2.65 sec
  Maximum Time Step           :     6.46 sec
  Percent in Steady State     :    -0.00
  Average Iterations per Step :     3.61
  Percent Not Converging      :    13.42
  
  
  ***************************
  Subcatchment Runoff Summary
  ***************************
  
  ------------------------------------------------------------------------------------------------------------------------------
                            Total      Total      Total      Total     Imperv       Perv      Total       Total     Peak  Runoff
                           Precip      Runon       Evap      Infil     Runoff     Runoff     Runoff      Runoff   Runoff   Coeff
  Subcatchment                 mm         mm         mm         mm         mm         mm         mm    10^6 ltr      LPS
  ------------------------------------------------------------------------------------------------------------------------------
  sub0                      76.87       0.00       0.00       1.01      70.25       4.37      74.62        0.06    45.53   0.971
  sub1                      76.87       0.00       0.00       1.54      60.21       6.04      66.25        0.44   288.24   0.862
  sub10                     76.87       0.00       0.00       0.98      56.42       4.02      60.44        0.67   451.28   0.786
  sub11                     76.87       0.00       0.00       0.89      52.44       3.75      56.18        0.65   465.64   0.731
  sub12                     76.87       0.00       0.00       1.57      53.31       6.54      59.85        0.52   392.13   0.779
  sub14                     76.87       0.00       0.00       0.97      49.66       4.03      53.69        0.51   360.11   0.698
  sub15                     76.87       0.00       0.00       4.44      44.65      15.04      59.69        1.03   656.81   0.776
  sub16                     76.87       0.00       0.00       4.71      43.55      17.13      60.67        0.64   442.90   0.789
  sub17                     76.87       0.00       0.00       5.04      48.06      17.98      66.05        0.57   385.77   0.859
  sub2                      76.87       0.00       0.00       7.05      44.01      19.28      63.30        0.59   320.93   0.823
  sub22                     76.87       0.00       0.00       7.90      41.68      24.12      65.79        4.16  2480.19   0.856
  sub23                     76.87       0.00       0.00       5.92      42.92      19.74      62.65        2.99  1920.95   0.815
  sub3                      76.87       0.00       0.00       7.58      43.59      18.52      62.12        1.40   692.27   0.808
  sub4                      76.87       0.00       0.00       1.69      59.32       5.80      65.12        1.36   730.84   0.847
  sub5                      76.87       0.00       0.00       0.87      58.25       3.59      61.84        0.70   465.24   0.804
  sub60                    139.36       0.00       0.00       1.45      93.74      11.46     107.87        1.42   960.35   0.774
  sub61                    139.36       0.00       0.00       2.23      93.65      17.14     112.93        2.07  1404.22   0.810
  sub62                    139.36       0.00       0.00       0.99      99.86       7.78     110.15        3.02  1951.45   0.790
  sub63                    139.36       0.00       0.00       4.09      80.21      28.99     111.34        2.53  1632.37   0.799
  sub64                    139.36       0.00       0.00       1.96      91.36      14.32     108.28        2.60  1615.76   0.777
  sub65                    139.36       0.00       0.00       1.80      98.62      13.09     113.80        3.13  1893.54   0.817
  sub66                    139.36       0.00       0.00       4.78      77.63      27.27     107.33        5.01  2565.48   0.770
  sub67                    139.36       0.00       0.00       0.98     102.35       8.01     112.64        2.10  1486.90   0.808
  sub68                    139.36       0.00       0.00       1.71      90.40      13.15     106.35        2.93  1933.52   0.763
  sub69                    139.36       0.00       0.00       1.59      93.80      14.97     111.21        4.12  2445.62   0.798
  sub7                      76.87       0.00       0.00       1.03      53.23       4.33      57.55        0.19   140.32   0.749
  sub70                    139.36       0.00       0.00       5.34      75.20      33.45     110.77        3.20  1483.22   0.795
  sub71                    139.36       0.00       0.00       0.91      90.73       7.06     101.13        2.64  1625.03   0.726
  sub72                    139.36       0.00       0.00       0.87      98.04       6.59     107.40        1.48   848.31   0.771
  sub8                      76.87       0.00       0.00       1.01      51.73       4.20      55.92        0.36   252.95   0.728
  sub9                      76.87       0.00       0.00       0.98      50.14       4.07      54.21        0.26   184.32   0.705
  

  ***********************
  LID Performance Summary
  ***********************

  --------------------------------------------------------------------------------------------------------------------
                                         Total      Evap     Infil   Surface    Drain    Initial     Final  Continuity
                                        Inflow      Loss      Loss   Outflow   Outflow   Storage   Storage       Error
  Subcatchment      LID Control             mm        mm        mm        mm        mm        mm        mm           %
  --------------------------------------------------------------------------------------------------------------------
  sub1              GreenRoof            76.87      0.00      0.00      0.00      0.00      7.05     84.02       -0.12
  sub10             GreenRoof            76.87      0.00      0.00      0.00      0.00      7.05     84.02       -0.12
  sub11             GreenRoof            76.87      0.00      0.00      0.00      0.00      7.05     84.02       -0.12
  sub12             GreenRoof            76.87      0.00      0.00      0.00      0.00      7.05     84.02       -0.12
  sub14             GreenRoof            76.87      0.00      0.00      0.00      0.00      7.05     84.02       -0.12
  sub15             GreenRoof            76.87      0.00      0.00      0.00      0.00      7.05     84.02       -0.12
  sub16             GreenRoof            76.87      0.00      0.00      0.00      0.00      7.05     84.02       -0.12
  sub17             GreenRoof            76.87      0.00      0.00      0.00      0.00      7.05     84.02       -0.12
  sub2              GreenRoof            76.87      0.00      0.00      0.00      0.00      7.05     84.02       -0.12
  sub22             GreenRoof            76.87      0.00      0.00      0.00      0.00      7.05     84.02       -0.12
  sub23             GreenRoof            76.87      0.00      0.00      0.00      0.00      7.05     84.02       -0.12
  sub3              GreenRoof            76.87      0.00      0.00      0.00      0.00      7.05     84.02       -0.12
  sub4              GreenRoof            76.87      0.00      0.00      0.00      0.00      7.05     84.02       -0.12
  sub5              GreenRoof            76.87      0.00      0.00      0.00      0.00      7.05     84.02       -0.12
  sub60             GreenRoof           139.36      0.00      0.00     11.73      0.00      7.05    134.68        0.00
  sub61             GreenRoof           139.36      0.00      0.00     11.73      0.00      7.05    134.68        0.00
  sub62             GreenRoof           139.36      0.00      0.00     11.73      0.00      7.05    134.68        0.00
  sub63             GreenRoof           139.36      0.00      0.00     11.73      0.00      7.05    134.68        0.00
  sub64             GreenRoof           139.36      0.00      0.00     11.73      0.00      7.05    134.68        0.00
  sub65             GreenRoof           139.36      0.00      0.00     11.73      0.00      7.05    134.68        0.00
  sub66             GreenRoof           139.36      0.00      0.00     11.73      0.00      7.05    134.68        0.00
  sub67             GreenRoof           139.36      0.00      0.00     11.73      0.00      7.05    134.68        0.00
  sub68             GreenRoof           139.36      0.00      0.00     11.73      0.00      7.05    134.68        0.00
  sub69             GreenRoof           139.36      0.00      0.00     11.73      0.00      7.05    134.68        0.00
  sub7              GreenRoof            76.87      0.00      0.00      0.00      0.00      7.05     84.02       -0.12
  sub70             GreenRoof           139.36      0.00      0.00     11.73      0.00      7.05    134.68        0.00
  sub71             GreenRoof           139.36      0.00      0.00     11.73      0.00      7.05    134.68        0.00
  sub72             GreenRoof           139.36      0.00      0.00     11.73      0.00      7.05    134.68        0.00
  sub8              GreenRoof            76.87      0.00      0.00      0.00      0.00      7.05     84.02       -0.12
  sub9              GreenRoof            76.87      0.00      0.00      0.00      0.00      7.05     84.02       -0.12
  
  ******************
  Node Depth Summary
  ******************
  
  ---------------------------------------------------------------------------------
                                 Average  Maximum  Maximum  Time of Max    Reported
                                   Depth    Depth      HGL   Occurrence   Max Depth
  Node                 Type       Meters   Meters   Meters  days hr:min      Meters
  ---------------------------------------------------------------------------------
  HS02004478           JUNCTION     0.27     1.59    10.82     0  02:13        1.58
  HS02004479           JUNCTION     0.35     1.69    10.90     0  02:05        1.66
  HS02004480           JUNCTION     0.31     1.67    10.91     0  02:05        1.63
  HS02004770           JUNCTION     0.31     1.42    11.25     0  02:02        1.42
  HS02004777           JUNCTION     0.33     1.48    11.28     0  02:02        1.46
  HS02004785           JUNCTION     0.23     1.49    11.39     0  02:02        1.40
  HS02004788           JUNCTION     0.19     1.42    11.32     0  02:02        1.42
  HS02004792           JUNCTION     0.26     1.60    11.12     0  02:02        1.60
  HS02004799           JUNCTION     0.38     1.76    10.97     0  02:05        1.76
  HS02004802           JUNCTION     0.37     1.80    10.93     0  02:10        1.80
  HS02004807           JUNCTION     0.34     1.92    11.09     0  02:10        1.92
  HS02004817           JUNCTION     0.65     2.41    11.26     0  02:13        2.41
  HS02004824           JUNCTION     0.21     2.01    11.41     0  02:12        2.01
  HS02004830           JUNCTION     0.21     2.03    11.50     0  02:13        2.03
  HS02004837           JUNCTION     0.18     2.03    11.61     0  02:13        2.03
  HS02004842           JUNCTION     0.47     2.22    11.49     0  02:05        2.22
  HS02004848           JUNCTION     0.16     2.07    11.67     0  02:13        2.07
  HS02004852           JUNCTION     0.17     2.12    11.63     0  02:13        2.12
  HS02004856           JUNCTION     0.23     2.07    11.50     0  02:13        2.07
  HS02004862           JUNCTION     0.18     2.00    11.38     0  02:11        2.00
  HS02004870           JUNCTION     0.17     2.10    11.39     0  02:13        2.10
  HS02004876           JUNCTION     0.23     2.24    11.27     0  02:13        2.24
  HS02004881           JUNCTION     0.16     1.99    11.02     0  02:13        1.99
  HS02004901           JUNCTION     0.32     1.42    11.24     0  02:02        1.42
  WS02001211           JUNCTION     0.64     0.82     5.66     0  02:16        0.82
  WS02001212           JUNCTION     0.39     0.58     5.65     0  02:17        0.58
  WS02001213           JUNCTION     0.61     0.88     5.64     0  02:16        0.88
  WS02003059           JUNCTION     0.67     0.95     5.63     0  02:15        0.95
  WS02003060           JUNCTION     0.39     0.69     5.63     0  02:14        0.69
  WS02003066           JUNCTION     0.24     0.46     6.02     0  02:13        0.46
  WS02003067           JUNCTION     0.56     0.89     6.21     0  02:13        0.89
  WS02003069           JUNCTION     0.44     0.79     5.37     0  02:15        0.79
  WS02003072           JUNCTION     0.50     0.82     5.19     0  02:15        0.82
  WS02003073           JUNCTION     0.30     0.52     4.59     0  02:16        0.52
  WS02004138           JUNCTION     0.13     0.14     7.39     0  00:29        0.14
  WS02004139           JUNCTION     0.58     0.75     5.66     0  02:16        0.75
  WS02004401           JUNCTION     0.81     2.07     8.07     0  02:13        2.07
  WS02004402           JUNCTION     0.82     1.99     7.95     0  02:13        1.96
  WS02004403           JUNCTION     0.83     1.90     7.83     0  02:13        1.90
  WS02004404           JUNCTION     0.89     1.87     7.72     0  02:13        1.84
  WS02004405           JUNCTION     0.87     1.82     7.67     0  02:13        1.81
  WS02004406           JUNCTION     0.86     1.74     7.57     0  02:13        1.74
  WS02004407           JUNCTION     0.28     1.00     7.31     0  02:13        0.99
  WS02004409           JUNCTION     0.56     1.43     7.20     0  02:13        1.42
  WS02004410           JUNCTION     0.57     1.34     7.06     0  02:13        1.31
  WS02004411           JUNCTION     0.57     1.23     6.91     0  02:13        1.22
  WS02004412           JUNCTION     0.57     1.13     6.77     0  02:13        1.12
  WS02004413           JUNCTION     0.70     1.16     6.63     0  02:13        1.15
  WS02006109           JUNCTION     1.06     2.64     9.26     0  02:02        2.64
  WS02006110           JUNCTION     0.98     2.47     9.05     0  02:13        2.44
  WS02006111           JUNCTION     0.48     2.04     8.75     0  02:13        2.04
  WS02006112           JUNCTION     1.04     2.68     8.56     0  02:13        2.68
  WS02006113           JUNCTION     0.56     2.00     8.89     0  02:13        2.00
  WS02006115           JUNCTION     0.74     2.25     8.39     0  02:13        2.25
  WS02006116           JUNCTION     0.81     2.17     8.21     0  02:13        2.16
  WS02006228           JUNCTION     1.13     3.03     9.68     0  02:13        3.03
  WS02006229           JUNCTION     1.15     3.25     9.94     0  02:13        3.25
  WS02006230           JUNCTION     1.07     2.65     9.39     0  01:58        2.65
  WS02006231           JUNCTION     0.78     2.20     9.32     0  02:26        2.20
  WS02006232           JUNCTION     0.87     2.18     9.22     0  01:58        2.18
  WS02006234           JUNCTION     0.76     1.96     9.12     0  01:56        1.96
  WS02006235           JUNCTION     0.77     1.95     9.11     0  02:29        1.95
  WS02006238           JUNCTION     0.79     1.94     9.08     0  01:36        1.93
  WS02006239           JUNCTION     0.73     2.03     9.24     0  01:36        1.82
  WS02006240           JUNCTION     0.68     2.10     9.39     0  01:36        1.66
  WS02006242           JUNCTION     0.70     1.55     8.82     0  01:36        1.55
  WS02006243           JUNCTION     0.60     1.48     8.90     0  01:37        1.38
  WS02006245           JUNCTION     0.57     1.42     8.90     0  01:37        1.29
  WS02006247           JUNCTION     0.57     1.34     8.84     0  01:37        1.27
  WS02006248           JUNCTION     0.52     1.10     8.69     0  01:37        1.10
  WS02006249           JUNCTION     0.53     1.09     8.69     0  01:37        1.09
  WS02006251           JUNCTION     0.67     2.19     9.86     0  02:13        2.19
  WS02006252           JUNCTION     0.46     1.50     9.74     0  00:00        1.50
  WS02006253           JUNCTION     0.76     3.26    10.91     0  02:13        3.26
  WS02006256           JUNCTION     1.25     2.35     9.28     0  00:00        2.35
  WS02006280           JUNCTION     0.35     1.83    10.10     0  02:13        1.83
  WS02006284           JUNCTION     0.60     2.02    10.42     0  02:13        2.02
  WS02006287           JUNCTION     0.34     1.74    10.69     0  02:11        1.73
  WSF200               JUNCTION     0.23     0.53     5.76     0  02:14        0.53
  YS02001580           JUNCTION     0.18     1.05     9.59     0  01:36        0.77
  YS02001583           JUNCTION     0.22     1.14     9.64     0  01:36        0.82
  YS02001586           JUNCTION     0.34     1.13     9.30     0  01:36        1.13
  YS02001590           JUNCTION     0.46     1.39     9.25     0  01:36        1.37
  YS02001593           JUNCTION     0.39     1.31     9.17     0  01:36        1.29
  YS02001596           JUNCTION     0.53     1.68     9.09     0  01:36        1.65
  YS02001600           JUNCTION     0.63     1.87     9.00     0  01:36        1.87
  YS02001601           JUNCTION     0.82     2.06     8.90     0  01:35        2.06
  YS02001602           JUNCTION     0.71     1.87     8.77     0  01:35        1.87
  YS02001605           JUNCTION     0.66     1.78     8.68     0  01:35        1.78
  YS02001607           JUNCTION     0.63     1.68     8.53     0  01:35        1.68
  YS02001610           JUNCTION     0.67     1.68     8.48     0  01:35        1.68
  YS02001613           JUNCTION     0.63     1.69     8.53     0  01:35        1.67
  YS02001616           JUNCTION     0.56     1.61     8.52     0  01:35        1.61
  YS02001619           JUNCTION     0.54     1.61     8.54     0  01:35        1.61
  YS02001622           JUNCTION     0.53     1.61     8.51     0  01:35        1.58
  YS02001625           JUNCTION     0.79     1.78     8.38     0  01:35        1.78
  YS02001629           JUNCTION     0.68     1.85     8.40     0  01:35        1.85
  YS02001633           JUNCTION     0.76     2.07     8.53     0  01:49        2.07
  YS02001641           JUNCTION     0.73     1.97     8.41     0  01:42        1.97
  YS02001644           JUNCTION     0.72     1.92     8.35     0  01:41        1.92
  YS02001647           JUNCTION     0.52     1.80     8.41     0  01:47        1.79
  YS02001649           JUNCTION     0.59     2.05     8.44     0  01:47        2.05
  YS02001652           JUNCTION     0.48     2.00     8.59     0  01:49        2.00
  YS02001655           JUNCTION     0.38     1.89     8.74     0  01:49        1.88
  YS02001658           JUNCTION     0.29     1.75     8.89     0  01:49        1.74
  YS02001661           JUNCTION     0.26     1.63     9.04     0  01:49        1.63
  YS02001664           JUNCTION     0.11     1.26     9.18     0  01:49        1.26
  YS02001745           JUNCTION     0.15     1.12     8.64     0  01:49        1.12
  YS02001748           JUNCTION     0.27     1.51     8.58     0  01:49        1.50
  YS02001751           JUNCTION     0.33     1.66     8.54     0  01:49        1.65
  YS02001754           JUNCTION     0.44     1.87     8.48     0  01:49        1.86
  YS02001757           JUNCTION     0.62     2.15     8.41     0  01:49        2.15
  YS02001759           JUNCTION     0.57     2.15     8.52     0  01:48        2.15
  YS02001762           JUNCTION     0.56     2.10     8.50     0  01:48        2.10
  YS02001765           JUNCTION     0.53     2.04     8.49     0  01:47        2.04
  YS02001767           JUNCTION     0.52     1.99     8.48     0  01:47        1.99
  YS02001770           JUNCTION     0.53     1.95     8.44     0  01:46        1.95
  YS02001774           JUNCTION     0.59     2.00     8.42     0  01:46        2.00
  YS02001779           JUNCTION     0.41     1.68     8.37     0  01:40        1.68
  YS02001783           JUNCTION     0.34     1.27     7.41     0  01:47        1.26
  YS02001784           JUNCTION     0.35     1.15     7.21     0  01:49        1.14
  YS02001786           JUNCTION     0.29     0.89     6.92     0  01:49        0.89
  YS02001788           JUNCTION     0.21     0.63     6.61     0  01:49        0.63
  YS02001790           JUNCTION     0.25     0.73     6.38     0  01:48        0.73
  YS02001791           JUNCTION     0.15     0.45     5.92     0  01:50        0.43
  YS02001793           JUNCTION     0.08     0.30     5.13     0  01:41        0.30
  YS02001882           JUNCTION     0.43     1.73     8.45     0  01:49        1.73
  YS02001884           JUNCTION     0.52     1.84     8.45     0  01:48        1.82
  YS02001887           JUNCTION     0.60     1.91     8.45     0  01:49        1.91
  YS02001890           JUNCTION     0.62     1.81     8.32     0  01:41        1.81
  YS02001895           JUNCTION     0.40     1.57     8.32     0  01:41        1.57
  YS02001898           JUNCTION     0.40     1.58     8.31     0  01:41        1.58
  YS02001901           JUNCTION     0.51     1.68     8.29     0  01:41        1.68
  YS02001904           JUNCTION     0.49     1.64     8.27     0  01:41        1.64
  YS02001907           JUNCTION     0.81     1.96     8.25     0  01:40        1.96
  YS02001910           JUNCTION     0.62     2.01     8.52     0  01:49        2.01
  YS02001915           JUNCTION     0.45     2.00     8.72     0  01:47        2.00
  YS02001918           JUNCTION     0.27     1.81     8.88     0  01:41        1.73
  YS02001920           JUNCTION     0.35     2.10     9.11     0  01:41        1.84
  YS02001923           JUNCTION     0.22     2.03     9.29     0  01:41        1.62
  YS02001926           JUNCTION     0.24     1.90     9.35     0  01:41        1.48
  YS02001929           JUNCTION     0.15     1.78     9.47     0  01:41        1.27
  YS02006553           JUNCTION     0.81     2.00     8.28     0  01:48        1.99
  YS02006556           JUNCTION     0.78     2.01     8.32     0  01:48        2.01
  YS02006558           JUNCTION     0.83     2.07     8.34     0  01:47        2.07
  YS02006561           JUNCTION     0.22     0.95     7.61     0  01:48        0.94
  YS02163301           JUNCTION     0.71     1.95     8.46     0  01:48        1.94
  YS02163601           JUNCTION     0.79     2.07     8.47     0  01:42        2.07
  YS02164001           JUNCTION     0.72     1.98     8.44     0  01:42        1.98
  YSB1154              JUNCTION     0.48     2.10    11.16     0  02:13        2.10
  YSB1171              JUNCTION     0.63     1.95    10.85     0  02:05        1.95
  YSB1174              JUNCTION     0.44     1.95    11.06     0  02:13        1.95
  YSB6556              JUNCTION     0.38     1.80    10.97     0  02:13        1.80
  CC-1                 OUTFALL      0.00     0.00     0.00     0  00:00        0.00
  CC-2                 OUTFALL      0.00     0.00     0.00     0  00:00        0.00
  JK-1                 OUTFALL      0.00     0.00     0.00     0  00:00        0.00
  JK-2                 OUTFALL      0.00     0.00     0.00     0  00:00        0.00
  WSC                  OUTFALL      0.30     0.52     1.19     0  02:16        0.52
  CC-storage           STORAGE      1.01     1.98     7.48     0  02:28        1.98
  JK-storage           STORAGE      2.30     4.23     5.03     0  01:41        4.21
  XR-storage           STORAGE      7.88     9.26     7.26     0  08:00        9.26
  
  
  *******************
  Node Inflow Summary
  *******************
  
  -------------------------------------------------------------------------------------------------
                                  Maximum  Maximum                  Lateral       Total        Flow
                                  Lateral    Total  Time of Max      Inflow      Inflow     Balance
                                   Inflow   Inflow   Occurrence      Volume      Volume       Error
  Node                 Type           LPS      LPS  days hr:min    10^6 ltr    10^6 ltr     Percent
  -------------------------------------------------------------------------------------------------
  HS02004478           JUNCTION      0.00  2304.46     0  02:11           0        8.92      -0.006
  HS02004479           JUNCTION      0.00   386.06     0  02:05           0       0.831       0.089
  HS02004480           JUNCTION      0.00  2065.67     0  02:04           0        6.66       0.036
  HS02004770           JUNCTION   1920.95  1920.95     0  02:13        2.99        3.21       0.099
  HS02004777           JUNCTION      0.03   723.10     0  02:02    0.000864        1.91       0.265
  HS02004785           JUNCTION      0.15   732.16     0  02:01     0.00432        1.91       0.017
  HS02004788           JUNCTION    658.48   858.72     0  02:13        1.07        2.98      -0.013
  HS02004792           JUNCTION   2480.47  3332.73     0  02:13        4.16        7.14       0.008
  HS02004799           JUNCTION    360.11  1746.24     0  02:03       0.511        6.04       0.046
  HS02004802           JUNCTION      0.00  1233.27     0  02:15           0        2.42       0.167
  HS02004807           JUNCTION    465.64  1655.25     0  02:13       0.653        2.58       0.166
  HS02004817           JUNCTION      0.60  1197.00     0  02:15      0.0173        1.98       0.831
  HS02004824           JUNCTION    730.89  1298.30     0  02:15        1.36        2.17       0.018
  HS02004830           JUNCTION      0.15   590.57     0  02:02     0.00432           1       0.113
  HS02004837           JUNCTION    457.63   768.16     0  02:03       0.849        1.29       0.063
  HS02004842           JUNCTION      0.00   750.98     0  02:03           0       0.746       1.778
  HS02004848           JUNCTION    692.27  1016.73     0  02:05         1.4        1.93       0.002
  HS02004852           JUNCTION      0.00  1001.59     0  02:05           0        1.72      -0.019
  HS02004856           JUNCTION    184.32  1048.45     0  02:05       0.261        1.98       0.086
  HS02004862           JUNCTION    321.13  1125.27     0  02:05       0.596        2.58      -0.001
  HS02004870           JUNCTION    252.95  1237.21     0  02:12       0.357        2.93       0.007
  HS02004876           JUNCTION    288.24  1512.87     0  02:14       0.441        3.37       0.022
  HS02004881           JUNCTION    140.32  1648.08     0  02:13       0.194        3.56       0.006
  HS02004901           JUNCTION    442.90   707.14     0  02:13       0.635        1.01       0.176
  WS02001211           JUNCTION      7.35   202.49     0  03:28       0.212        5.44       0.612
  WS02001212           JUNCTION      0.00   206.83     0  03:28           0        5.41       0.290
  WS02001213           JUNCTION      0.00   210.05     0  02:51           0        5.39       0.332
  WS02003059           JUNCTION      0.00   214.61     0  03:27           0        5.38       0.595
  WS02003060           JUNCTION     16.53  1535.19     0  02:14       0.476        14.6       0.100
  WS02003066           JUNCTION      0.00  1337.99     0  02:13           0        8.78       0.016
  WS02003067           JUNCTION      0.00  1337.54     0  02:13           0        8.78       0.049
  WS02003069           JUNCTION      0.32  1534.67     0  02:14     0.00922        14.6       0.105
  WS02003072           JUNCTION      0.00  1534.42     0  02:15           0        14.6       0.142
  WS02003073           JUNCTION      1.82  1536.50     0  02:15      0.0524        14.6       0.148
  WS02004138           JUNCTION      0.00   380.00     0  00:00           0        5.25       0.052
  WS02004139           JUNCTION      0.32   190.95     0  00:29     0.00924        5.26       0.509
  WS02004401           JUNCTION      0.00  1344.47     0  02:13           0        8.89       0.115
  WS02004402           JUNCTION      0.00  1347.42     0  02:13           0        8.88       0.116
  WS02004403           JUNCTION      0.00  1349.39     0  02:13           0        8.87       0.116
  WS02004404           JUNCTION      0.16  1351.01     0  02:13     0.00467        8.86       0.096
  WS02004405           JUNCTION      0.04  1354.59     0  02:13      0.0011        8.85       0.140
  WS02004406           JUNCTION      0.00  1357.72     0  02:13           0        8.84       0.238
  WS02004407           JUNCTION      0.00  1359.03     0  02:13           0        8.82       0.016
  WS02004409           JUNCTION      0.00  1336.93     0  02:13           0        8.82       0.032
  WS02004410           JUNCTION      0.00  1337.31     0  02:13           0        8.82       0.053
  WS02004411           JUNCTION      0.00  1337.15     0  02:13           0        8.81       0.066
  WS02004412           JUNCTION      0.00  1337.05     0  02:13           0         8.8       0.088
  WS02004413           JUNCTION      0.00  1337.40     0  02:13           0         8.8       0.154
  WS02006109           JUNCTION      1.23  1290.08     0  02:13      0.0354        8.67       0.112
  WS02006110           JUNCTION      0.00  1121.60     0  02:30           0        8.36       0.088
  WS02006111           JUNCTION      0.00  1121.69     0  02:30           0        8.35       0.007
  WS02006112           JUNCTION    385.77  1341.64     0  02:13       0.567        8.92       0.218
  WS02006113           JUNCTION      0.00  1121.92     0  02:30           0        8.35       0.023
  WS02006115           JUNCTION      0.00  1340.01     0  02:13           0         8.9       0.071
  WS02006116           JUNCTION      0.00  1340.97     0  02:13           0        8.89       0.050
  WS02006228           JUNCTION      0.00  1287.98     0  02:11           0        8.64       0.050
  WS02006229           JUNCTION      0.00  2305.24     0  02:11           0        11.1       0.074
  WS02006230           JUNCTION     10.28  1026.81     0  02:13       0.296         4.7       0.206
  WS02006231           JUNCTION      0.00   467.83     0  03:21           0         3.4      -0.209
  WS02006232           JUNCTION      0.00   467.78     0  03:21           0         3.4       0.187
  WS02006234           JUNCTION      0.00   467.70     0  03:21           0        3.38      -0.157
  WS02006235           JUNCTION      0.00   467.59     0  03:21           0        3.52       0.159
  WS02006238           JUNCTION      0.00   418.96     0  03:40           0        2.95      -0.119
  WS02006239           JUNCTION      0.00   418.92     0  03:40           0        2.91      -0.107
  WS02006240           JUNCTION      0.00   418.85     0  03:40           0        2.87      -0.016
  WS02006242           JUNCTION      0.00   418.82     0  03:40           0        2.84      -0.014
  WS02006243           JUNCTION      0.00   418.78     0  03:40           0         2.4      -0.028
  WS02006245           JUNCTION      0.00   418.73     0  03:40           0         2.4       0.280
  WS02006247           JUNCTION      0.00   418.67     0  03:40           0        2.39       0.003
  WS02006248           JUNCTION      0.00   418.93     0  03:42           0        2.68       0.018
  WS02006249           JUNCTION      0.00  1378.13     0  02:13           0        6.36       0.060
  WS02006251           JUNCTION      0.08  1703.09     0  02:13     0.00222        6.52      -0.027
  WS02006252           JUNCTION      0.00   729.30     0  02:13           0        3.52       0.002
  WS02006253           JUNCTION     45.53  1696.55     0  02:13      0.0604        3.64      -0.003
  WS02006256           JUNCTION      0.00   300.00     0  00:00           0        2.19      -0.119
  WS02006280           JUNCTION      0.00  2303.85     0  02:11           0         8.9       0.005
  WS02006284           JUNCTION      0.10  2303.79     0  02:11     0.00275         8.9       0.001
  WS02006287           JUNCTION      0.00  2305.75     0  02:18           0         8.9       0.010
  WSF200               JUNCTION      0.00  1338.10     0  02:14           0        8.78       0.007
  YS02001580           JUNCTION      0.00    91.66     0  01:36           0     0.00412       0.096
  YS02001583           JUNCTION      0.00   145.36     0  01:35           0      0.0153      -4.427
  YS02001586           JUNCTION   1483.22  1483.22     0  01:52         3.2        3.21       0.038
  YS02001590           JUNCTION      0.00   318.52     0  02:13           0        1.78      -0.018
  YS02001593           JUNCTION      0.00   318.30     0  01:57           0        1.78      -0.002
  YS02001596           JUNCTION      0.00   318.00     0  02:00           0        1.78      -0.021
  YS02001600           JUNCTION      0.00   318.12     0  02:25           0        1.78      -0.001
  YS02001601           JUNCTION   2445.62  2763.15     0  01:50        4.12        5.89       0.009
  YS02001602           JUNCTION      0.00   508.78     0  01:35           0        2.77       0.010
  YS02001605           JUNCTION      0.00   509.01     0  01:35           0        2.55       0.014
  YS02001607           JUNCTION      0.00   509.13     0  01:35           0        2.55       0.062
  YS02001610           JUNCTION      0.00   955.41     0  02:01           0        3.37       0.058
  YS02001613           JUNCTION      0.00   618.88     0  01:58           0        2.54       0.044
  YS02001616           JUNCTION      0.00   620.25     0  01:58           0        2.54       0.014
  YS02001619           JUNCTION   2565.48  2565.48     0  01:51           5        6.72      -0.002
  YS02001622           JUNCTION      0.00  1053.95     0  01:57           0         5.4      -0.004
  YS02001625           JUNCTION      0.00  1505.42     0  01:58           0        5.98       0.176
  YS02001629           JUNCTION      0.00  1048.38     0  01:50           0        4.12      -0.014
  YS02001633           JUNCTION   1893.74  1893.74     0  01:50        3.14        6.34       0.049
  YS02001641           JUNCTION      0.00  1367.99     0  01:39           0        5.43       0.047
  YS02001644           JUNCTION   1615.80  3202.45     0  01:50         2.6        8.29       0.040
  YS02001647           JUNCTION      0.00  1746.24     0  01:39           0         6.2       0.005
  YS02001649           JUNCTION      0.00  1959.11     0  01:38           0        8.47       0.002
  YS02001652           JUNCTION      0.00  1633.34     0  01:50           0        2.53      -0.048
  YS02001655           JUNCTION      0.15  1633.01     0  01:50     0.00443        2.53       0.028
  YS02001658           JUNCTION      0.00  1632.26     0  01:50           0        2.53      -0.012
  YS02001661           JUNCTION      0.00  1632.15     0  01:50           0        2.53      -0.018
  YS02001664           JUNCTION   1632.37  1632.37     0  01:50        2.53        2.53      -0.006
  YS02001745           JUNCTION    960.35   960.35     0  01:49        1.42        1.42       0.102
  YS02001748           JUNCTION      0.04   964.11     0  01:49      0.0013        1.42      -0.182
  YS02001751           JUNCTION      0.01   965.61     0  01:49    0.000317        1.42       0.056
  YS02001754           JUNCTION      0.26   967.31     0  01:49     0.00749        1.44      -0.102
  YS02001757           JUNCTION      0.00  3230.10     0  01:47           0        13.5       0.017
  YS02001759           JUNCTION   1404.26  1412.18     0  01:47        2.07        3.92      -0.007
  YS02001762           JUNCTION      0.00   705.93     0  01:43           0        1.85      -0.003
  YS02001765           JUNCTION      0.00   706.50     0  01:43           0        1.85      -0.002
  YS02001767           JUNCTION      0.54   707.87     0  01:43      0.0154        1.85      -0.016
  YS02001770           JUNCTION   1951.60  2055.61     0  01:50        3.02        3.08      -0.014
  YS02001774           JUNCTION      0.00   852.03     0  01:55           0        0.88       0.137
  YS02001779           JUNCTION      0.01   851.73     0  01:56    0.000144       0.837      -0.121
  YS02001783           JUNCTION      0.00  1186.84     0  01:49           0        5.32       0.004
  YS02001784           JUNCTION      1.06  1187.89     0  01:49      0.0305        5.35       0.008
  YS02001786           JUNCTION      0.06  1187.92     0  01:49     0.00162        5.36       0.013
  YS02001788           JUNCTION      0.07  1187.76     0  01:48     0.00204        5.36       0.006
  YS02001790           JUNCTION      0.15  1200.69     0  01:49     0.00446        5.36       0.017
  YS02001791           JUNCTION      0.00  1306.33     0  01:49           0        5.36      -0.029
  YS02001793           JUNCTION      0.00  1282.96     0  01:49           0        5.36       0.005
  YS02001882           JUNCTION      0.00    33.49     0  01:38           0      0.0132       5.029
  YS02001884           JUNCTION      0.00    75.04     0  01:38           0      0.0492       5.134
  YS02001887           JUNCTION   1487.35  1487.48     0  01:49        2.11        2.14       0.200
  YS02001890           JUNCTION      0.00  1488.24     0  01:49           0         2.1       0.246
  YS02001895           JUNCTION      0.00   517.74     0  01:57           0         1.6       0.112
  YS02001898           JUNCTION      0.00   517.67     0  01:59           0        1.59      -0.003
  YS02001901           JUNCTION      0.00   517.87     0  02:00           0         1.6       0.211
  YS02001904           JUNCTION      0.00   517.95     0  01:57           0         1.6       0.169
  YS02001907           JUNCTION      0.00  3261.99     0  01:50           0        5.95       0.302
  YS02001910           JUNCTION      0.00  1993.04     0  01:52           0        4.08       0.174
  YS02001915           JUNCTION   1625.05  2472.50     0  01:50        2.64        4.24       0.040
  YS02001918           JUNCTION      0.00   852.87     0  01:51           0        1.62       0.006
  YS02001920           JUNCTION      2.87   852.30     0  01:51      0.0827         1.6       0.071
  YS02001923           JUNCTION      0.04   848.78     0  01:51     0.00109         1.5      -0.048
  YS02001926           JUNCTION      0.05   848.04     0  01:51      0.0015        1.49      -0.007
  YS02001929           JUNCTION    848.31   848.31     0  01:51        1.48        1.48      -0.049
  YS02006553           JUNCTION      0.00   786.55     0  02:16           0        2.97       0.397
  YS02006556           JUNCTION      0.00   786.24     0  02:16           0        2.98       0.268
  YS02006558           JUNCTION   1934.40  1934.40     0  01:50        2.95        5.63       0.063
  YS02006561           JUNCTION      0.00  1186.69     0  01:49           0        5.32      -0.002
  YS02163301           JUNCTION      0.00  1047.53     0  01:50           0        4.12       0.029
  YS02163601           JUNCTION      0.11  1370.53     0  01:39     0.00317        5.42       0.083
  YS02164001           JUNCTION      0.00  1369.10     0  01:39           0        5.42       0.035
  YSB1154              JUNCTION    465.24   465.24     0  02:13       0.701       0.701       0.209
  YSB1171              JUNCTION      0.00  1086.37     0  02:13           0        1.35       0.483
  YSB1174              JUNCTION    392.13   392.13     0  02:13       0.523       0.523       0.251
  YSB6556              JUNCTION      0.00   467.07     0  02:13           0       0.702       0.182
  CC-1                 OUTFALL       0.00   683.00     0  00:00           0        5.48       0.000
  CC-2                 OUTFALL       0.00   683.00     0  00:00           0         5.3       0.000
  JK-1                 OUTFALL       0.00  1000.00     0  00:00           0         3.2       0.000
  JK-2                 OUTFALL       0.00  1000.00     0  00:00           0      0.0484       0.000
  WSC                  OUTFALL       0.00  1537.11     0  02:16           0        14.6       0.000
  CC-storage           STORAGE       0.00  3229.85     0  01:48           0        15.8      -0.154
  JK-storage           STORAGE       0.00  1341.12     0  01:49           0        5.51      -0.209
  XR-storage           STORAGE     200.00   200.00     0  00:00        5.76        6.36       0.001
  
  
  **********************
  Node Surcharge Summary
  **********************
  
  Surcharging occurs when water rises above the top of the highest conduit.
  ---------------------------------------------------------------------
                                               Max. Height   Min. Depth
                                   Hours       Above Crown    Below Rim
  Node                 Type      Surcharged         Meters       Meters
  ---------------------------------------------------------------------
  HS02004478           JUNCTION        0.52          0.669        0.271
  HS02004479           JUNCTION        0.66          0.894        0.156
  HS02004480           JUNCTION        0.70          0.958        0.142
  HS02004770           JUNCTION        0.60          0.720        0.000
  HS02004777           JUNCTION        0.61          0.780        0.000
  HS02004785           JUNCTION        0.56          0.790        0.000
  HS02004788           JUNCTION        0.55          0.720        0.000
  HS02004792           JUNCTION        0.67          0.900        0.000
  HS02004799           JUNCTION        0.80          1.060        0.000
  HS02004802           JUNCTION        0.71          1.094        0.116
  HS02004807           JUNCTION        0.68          1.220        0.000
  HS02004817           JUNCTION        1.29          1.713        0.027
  HS02004824           JUNCTION        0.55          1.310        0.000
  HS02004830           JUNCTION        0.52          1.330        0.000
  HS02004837           JUNCTION        0.48          1.334        0.006
  HS02004842           JUNCTION        0.61          1.520        0.000
  HS02004848           JUNCTION        0.44          1.370        0.000
  HS02004852           JUNCTION        0.46          1.420        0.000
  HS02004856           JUNCTION        0.46          1.300        0.000
  HS02004862           JUNCTION        0.49          1.300        0.000
  HS02004870           JUNCTION        0.51          1.400        0.000
  HS02004876           JUNCTION        0.58          1.541        0.019
  HS02004881           JUNCTION        0.56          1.286        0.164
  HS02004901           JUNCTION        0.61          0.720        0.000
  WS02004401           JUNCTION        1.72          1.071        0.589
  WS02004402           JUNCTION        1.73          0.989        0.751
  WS02004403           JUNCTION        1.73          0.899        1.131
  WS02004404           JUNCTION        1.82          0.875        1.905
  WS02004405           JUNCTION        1.79          0.818        1.982
  WS02004406           JUNCTION        1.77          0.736        1.714
  WS02004407           JUNCTION        0.01          0.002        2.338
  WS02004409           JUNCTION        1.13          0.427        1.933
  WS02004410           JUNCTION        1.05          0.337        2.203
  WS02004411           JUNCTION        0.94          0.234        2.296
  WS02004412           JUNCTION        0.83          0.131        2.179
  WS02004413           JUNCTION        1.43          0.162        2.038
  WS02006109           JUNCTION        2.32          1.820        0.000
  WS02006110           JUNCTION        2.11          1.556        0.294
  WS02006111           JUNCTION        1.40          1.229        0.641
  WS02006112           JUNCTION        2.22          1.680        0.000
  WS02006113           JUNCTION        1.41          1.197        0.733
  WS02006115           JUNCTION        1.60          1.240        1.010
  WS02006116           JUNCTION        1.62          1.114        1.176
  WS02006228           JUNCTION        2.32          2.200        0.000
  WS02006229           JUNCTION        0.99          1.070        0.000
  WS02006230           JUNCTION        1.87          1.570        0.000
  WS02006231           JUNCTION        2.11          1.488        0.042
  WS02006232           JUNCTION        2.27          1.480        0.000
  WS02006234           JUNCTION        2.21          1.240        0.000
  WS02006235           JUNCTION        2.23          1.236        0.054
  WS02006238           JUNCTION        2.24          1.220        0.210
  WS02006239           JUNCTION        2.22          1.290        0.000
  WS02006240           JUNCTION        2.22          1.390        0.000
  WS02006242           JUNCTION        2.23          0.820        0.000
  WS02006243           JUNCTION        2.21          0.770        0.000
  WS02006245           JUNCTION        2.19          0.705        0.145
  WS02006247           JUNCTION        2.20          0.625        0.135
  WS02006248           JUNCTION        2.18          0.380        0.000
  WS02006249           JUNCTION        2.19          0.390        0.000
  WS02006251           JUNCTION        2.16          1.161        0.019
  WS02006252           JUNCTION        2.30          1.100        0.000
  WS02006253           JUNCTION        2.16          2.222        0.258
  WS02006256           JUNCTION        5.02          2.050        0.000
  WS02006280           JUNCTION        0.82          0.780        0.000
  WS02006284           JUNCTION        0.73          0.744        0.056
  WS02006287           JUNCTION        0.62          0.740        0.150
  YS02001580           JUNCTION        1.04          0.450        0.000
  YS02001583           JUNCTION        1.05          0.500        0.000
  YS02001586           JUNCTION        1.26          0.510        0.000
  YS02001590           JUNCTION        1.36          0.735        0.015
  YS02001593           JUNCTION        1.36          0.691        0.149
  YS02001596           JUNCTION        1.51          0.946        0.124
  YS02001600           JUNCTION        1.63          1.190        0.000
  YS02001601           JUNCTION        1.85          1.440        0.000
  YS02001602           JUNCTION        1.78          1.270        0.000
  YS02001605           JUNCTION        1.75          1.180        0.000
  YS02001607           JUNCTION        1.40          0.680        0.000
  YS02001610           JUNCTION        1.44          0.680        0.000
  YS02001613           JUNCTION        1.40          0.692        0.008
  YS02001616           JUNCTION        1.34          0.610        0.000
  YS02001619           JUNCTION        1.33          0.610        0.000
  YS02001622           JUNCTION        1.33          0.608        0.012
  YS02001625           JUNCTION        1.52          0.780        0.000
  YS02001629           JUNCTION        1.28          0.470        0.000
  YS02001633           JUNCTION        1.55          1.053        0.007
  YS02001641           JUNCTION        1.51          0.970        0.130
  YS02001644           JUNCTION        1.49          0.920        0.000
  YS02001647           JUNCTION        1.30          0.795        0.105
  YS02001649           JUNCTION        1.42          1.050        0.000
  YS02001652           JUNCTION        1.23          0.965        0.165
  YS02001655           JUNCTION        1.01          0.886        0.314
  YS02001658           JUNCTION        0.57          0.746        0.554
  YS02001661           JUNCTION        0.24          0.561        0.829
  YS02001664           JUNCTION        0.07          0.255        1.055
  YS02001745           JUNCTION        0.06          0.120        1.230
  YS02001748           JUNCTION        0.46          0.427        0.763
  YS02001751           JUNCTION        0.86          0.657        0.543
  YS02001754           JUNCTION        1.15          0.819        0.331
  YS02001757           JUNCTION        1.49          1.152        0.058
  YS02001759           JUNCTION        1.41          1.155        0.055
  YS02001762           JUNCTION        1.39          1.103        0.047
  YS02001765           JUNCTION        1.35          1.044        0.056
  YS02001767           JUNCTION        1.33          0.991        0.039
  YS02001770           JUNCTION        1.29          0.920        0.000
  YS02001774           JUNCTION        1.37          1.002        0.048
  YS02001779           JUNCTION        1.13          0.680        0.000
  YS02001783           JUNCTION        0.82          0.471        1.129
  YS02001784           JUNCTION        0.79          0.346        1.144
  YS02001786           JUNCTION        0.66          0.092        1.338
  YS02001882           JUNCTION        0.75          0.730        0.100
  YS02001884           JUNCTION        0.76          0.775        0.095
  YS02001887           JUNCTION        0.81          0.863        0.087
  YS02001890           JUNCTION        0.83          0.760        0.000
  YS02001895           JUNCTION        0.74          0.573        0.177
  YS02001898           JUNCTION        0.73          0.546        0.194
  YS02001901           JUNCTION        0.79          0.683        0.187
  YS02001904           JUNCTION        0.78          0.640        0.210
  YS02001907           JUNCTION        1.10          0.950        0.000
  YS02001910           JUNCTION        0.86          1.013        0.087
  YS02001915           JUNCTION        0.75          1.000        0.000
  YS02001918           JUNCTION        0.64          0.810        0.000
  YS02001920           JUNCTION        0.66          1.105        0.035
  YS02001923           JUNCTION        0.30          0.820        0.000
  YS02001926           JUNCTION        0.32          0.900        0.000
  YS02001929           JUNCTION        0.20          0.780        0.000
  YS02006553           JUNCTION        1.13          0.998        0.192
  YS02006556           JUNCTION        0.98          0.969        0.381
  YS02006558           JUNCTION        0.97          0.975        0.425
  YS02006561           JUNCTION        0.60          0.151        0.999
  YS02163301           JUNCTION        1.53          0.946        0.084
  YS02163601           JUNCTION        1.58          1.068        0.012
  YS02164001           JUNCTION        1.51          0.984        0.116
  YSB1154              JUNCTION        0.92          1.400        0.000
  YSB1171              JUNCTION        0.93          1.100        0.000
  YSB1174              JUNCTION        0.84          1.250        0.000
  YSB6556              JUNCTION        0.77          1.100        0.000
  
  
  *********************
  Node Flooding Summary
  *********************
  
  Flooding refers to all water that overflows a node, whether it ponds or not.
  --------------------------------------------------------------------------
                                                             Total   Maximum
                                 Maximum   Time of Max       Flood    Ponded
                        Hours       Rate    Occurrence      Volume     Depth
  Node                 Flooded       LPS   days hr:min    10^6 ltr    Meters
  --------------------------------------------------------------------------
  HS02004770              0.42   1459.19      0  02:13       0.930     0.000
  HS02004777              0.01     25.40      0  02:02       0.000     0.000
  HS02004785              0.01     84.82      0  02:02       0.000     0.000
  HS02004788              0.01    198.91      0  02:02       0.001     0.000
  HS02004792              0.41   2189.78      0  02:13       1.612     0.000
  HS02004799              0.19    202.66      0  02:13       0.082     0.000
  HS02004807              0.12    425.20      0  02:13       0.124     0.000
  HS02004824              0.06    102.18      0  02:14       0.016     0.000
  HS02004830              0.01      0.64      0  02:13       0.000     0.000
  HS02004842              0.06     90.65      0  02:05       0.009     0.000
  HS02004848              0.01      0.12      0  02:13       0.000     0.000
  HS02004852              0.01      0.48      0  02:13       0.000     0.000
  HS02004862              0.05     70.61      0  02:13       0.005     0.000
  HS02004870              0.01      0.50      0  02:13       0.000     0.000
  HS02004901              0.49    707.11      0  02:13       0.784     0.000
  WS02006109              0.46    350.92      0  02:13       0.302     0.000
  WS02006228              0.01      0.08      0  02:13       0.000     0.000
  WS02006230              0.74    573.75      0  02:13       1.029     0.000
  WS02006232              0.16      1.21      0  02:21       0.000     0.000
  WS02006234              0.82    128.79      0  02:29       0.356     0.000
  WS02006239              0.01     20.84      0  01:36       0.000     0.000
  WS02006240              0.01    101.76      0  01:36       0.000     0.000
  WS02006242              0.94    137.65      0  02:33       0.429     0.000
  WS02006243              0.01     98.31      0  01:37       0.000     0.000
  WS02006248              1.36    339.14      0  01:57       1.359     0.000
  WS02006249              2.01   1316.90      0  02:13       4.751     0.000
  WS02006252              0.51    727.08      0  02:13       0.640     0.000
  WS02006256              2.03    293.19      0  00:00       1.159     0.000
  WS02006280              0.01      1.06      0  02:13       0.000     0.000
  YS02001580              0.01     80.17      0  01:36       0.000     0.000
  YS02001583              0.01     78.40      0  01:36       0.000     0.000
  YS02001586              0.86   1165.69      0  01:52       1.424     0.000
  YS02001600              0.01      0.74      0  01:36       0.000     0.000
  YS02001601              1.16   2365.13      0  01:50       3.122     0.000
  YS02001602              1.06     62.00      0  02:30       0.218     0.000
  YS02001605              0.01      3.42      0  01:35       0.000     0.000
  YS02001607              0.01     24.83      0  01:35       0.000     0.000
  YS02001610              0.93    954.84      0  01:58       1.653     0.000
  YS02001616              0.08     46.68      0  01:35       0.000     0.000
  YS02001619              0.26    898.16      0  01:51       0.497     0.000
  YS02001625              0.93   1505.22      0  01:58       2.768     0.000
  YS02001629              0.33    607.22      0  01:50       0.342     0.000
  YS02001644              0.46   3202.13      0  01:50       2.340     0.000
  YS02001649              0.02     47.11      0  01:49       0.001     0.000
  YS02001770              0.18   1205.93      0  01:50       0.388     0.000
  YS02001779              0.41    851.46      0  01:56       0.820     0.000
  YS02001890              0.36    972.31      0  01:49       0.499     0.000
  YS02001907              0.57   3261.93      0  01:50       3.249     0.000
  YS02001915              0.14    480.02      0  01:50       0.122     0.000
  YS02001918              0.01     80.48      0  01:41       0.001     0.000
  YS02001923              0.01     61.12      0  01:41       0.000     0.000
  YS02001926              0.01     41.86      0  01:41       0.000     0.000
  YS02001929              0.01    247.01      0  01:41       0.001     0.000
  YSB1154                 0.01      0.29      0  02:13       0.000     0.000
  YSB1171                 0.30   1085.86      0  02:13       0.640     0.000
  YSB1174                 0.01      0.12      0  02:13       0.000     0.000
  
  
  **********************
  Storage Volume Summary
  **********************
  
  --------------------------------------------------------------------------------------------------
                         Average     Avg  Evap Exfil       Maximum     Max    Time of Max    Maximum
                          Volume    Pcnt  Pcnt  Pcnt        Volume    Pcnt     Occurrence    Outflow
  Storage Unit           1000 m3    Full  Loss  Loss       1000 m3    Full    days hr:min        LPS
  --------------------------------------------------------------------------------------------------
  CC-storage               2.815      44     0     0         5.521      86       0  02:28    1783.53
  JK-storage               0.116      40     0     0         0.212      73       0  01:41    2300.00
  XR-storage               0.946      66     0     0         1.111      77       0  08:00     380.00
  
  
  ***********************
  Outfall Loading Summary
  ***********************
  
  -----------------------------------------------------------
                         Flow       Avg       Max       Total
                         Freq      Flow      Flow      Volume
  Outfall Node           Pcnt       LPS       LPS    10^6 ltr
  -----------------------------------------------------------
  CC-1                  42.33    683.00    683.00       5.479
  CC-2                  41.08    683.00    683.00       5.299
  JK-1                  18.89   1000.00   1000.00       3.203
  JK-2                   0.19   1000.00   1000.00       0.048
  WSC                   99.94    650.11   1537.11      14.585
  -----------------------------------------------------------
  System                40.49   4016.11   1537.11      28.614
  
  
  ********************
  Link Flow Summary
  ********************
  
  -----------------------------------------------------------------------------
                                 Maximum  Time of Max   Maximum    Max/    Max/
                                  |Flow|   Occurrence   |Veloc|    Full    Full
  Link                 Type          LPS  days hr:min     m/sec    Flow   Depth
  -----------------------------------------------------------------------------
  1                    CONDUIT   1537.11     0  02:16      3.72    0.54    0.52
  HS02004478WS02006287 CONDUIT   2305.75     0  02:18      2.57    0.65    1.00
  HS02004479HS02004480 CONDUIT    384.25     0  02:05      0.55    0.37    1.00
  HS02004480HS02004478 CONDUIT   2061.05     0  02:04      2.94    8.68    1.00
  HS02004770HS02004777 CONDUIT    723.07     0  02:02      1.03    1.32    1.00
  HS02004777HS02004785 CONDUIT    732.01     0  02:01      1.10    0.90    1.00
  HS02004785HS02004788 CONDUIT    645.48     0  02:02      1.36    4.87    1.00
  HS02004788HS02004792 CONDUIT    860.02     0  02:13      1.43    0.57    1.00
  HS02004792HS02004799 CONDUIT   1619.73     0  02:03      2.31    0.99    1.00
  HS02004799HS02004480 CONDUIT   1747.34     0  02:03      2.50    2.21    1.00
  HS02004802HS02004478 CONDUIT   1233.32     0  02:14      1.76    1.09    1.00
  HS02004807HS02004802 CONDUIT   1233.27     0  02:15      1.76    2.35    1.00
  HS02004817HS02004807 CONDUIT   1196.99     0  02:15      1.71    0.71    1.00
  HS02004817HS02004824 CONDUIT   1196.40     0  02:15      1.71    0.54    1.00
  HS02004824HS02004830 CONDUIT    590.42     0  02:02      0.87    0.77    1.00
  HS02004830HS02004837 CONDUIT    607.29     0  02:03      0.95    0.60    1.00
  HS02004837HS02004842 CONDUIT    750.98     0  02:03      1.07    0.45    1.00
  HS02004842HS02004848 CONDUIT    751.27     0  02:03      1.17    0.44    1.00
  HS02004848HS02004852 CONDUIT   1001.59     0  02:05      1.56    1.13    1.00
  HS02004852HS02004856 CONDUIT    973.27     0  02:05      1.45    1.11    1.00
  HS02004856HS02004862 CONDUIT   1003.95     0  02:05      1.66    1.00    1.00
  HS02004862HS02004870 CONDUIT   1046.11     0  02:04      1.80    1.13    1.00
  HS02004870HS02004876 CONDUIT   1236.98     0  02:12      1.77    0.82    1.00
  HS02004876HS02004881 CONDUIT   1513.00     0  02:14      2.16   16.09    1.00
  HS02004881HS02006253 CONDUIT   1651.02     0  02:13      2.36    0.32    1.00
  HS02004901HS02004770 CONDUIT    265.79     0  02:27      0.38    1.00    1.00
  WS02001211WS02001212 CONDUIT    206.83     0  03:28      0.54    0.16    0.70
  WS02001212WS02001213 CONDUIT    210.05     0  02:51      1.04    0.32    0.57
  WS02001213WS02003059 CONDUIT    214.61     0  03:27      0.47    0.35    0.90
  WS02003059WS02003060 CONDUIT    220.23     0  03:26      0.66    0.14    0.82
  WS02003060WS02003069 CONDUIT   1534.35     0  02:14      2.09    0.60    0.62
  WS02003066WSF200     CONDUIT   1338.10     0  02:14      3.26    0.23    0.39
  WS02003067WS02003066 CONDUIT   1337.99     0  02:13      2.03    0.43    0.57
  WS02003069WS02003072 CONDUIT   1534.42     0  02:15      1.91    0.74    0.67
  WS02003072WS02003073 CONDUIT   1534.68     0  02:15      2.07    3.31    0.62
  WS02004138WS02004139 CONDUIT    190.63     0  00:29      2.18    0.04    0.42
  WS02004139WS02001211 CONDUIT    195.14     0  03:28      0.54    0.25    0.61
  WS02004401WS02004402 CONDUIT   1347.42     0  02:13      1.72    1.62    1.00
  WS02004402WS02004403 CONDUIT   1349.39     0  02:13      1.72    1.94    1.00
  WS02004403WS02004404 CONDUIT   1350.84     0  02:13      1.72    0.98    1.00
  WS02004404WS02004405 CONDUIT   1354.55     0  02:13      1.72   13.27    1.00
  WS02004405WS02004406 CONDUIT   1357.72     0  02:13      1.73    2.68    1.00
  WS02004406WS02004407 CONDUIT   1359.03     0  02:13      1.73    0.61    1.00
  WS02004407WS02004409 CONDUIT   1336.93     0  02:13      1.82    0.47    1.00
  WS02004409WS02004410 CONDUIT   1337.31     0  02:13      1.70    1.73    1.00
  WS02004410WS02004411 CONDUIT   1337.15     0  02:13      1.70    1.83    1.00
  WS02004411WS02004412 CONDUIT   1337.05     0  02:13      1.70    1.90    1.00
  WS02004412WS02004413 CONDUIT   1337.40     0  02:13      1.70    0.90    1.00
  WS02004413WS02003067 CONDUIT   1337.54     0  02:13      2.06    0.57    0.77
  WS02006109WS02006110 CONDUIT   1121.60     0  02:30      2.23    2.16    1.00
  WS02006110WS02006113 CONDUIT   1121.92     0  02:30      2.23    1.02    1.00
  WS02006111WS02006112 CONDUIT   1122.13     0  02:30      2.23    0.53    1.00
  WS02006112WS02006115 CONDUIT   1340.01     0  02:13      1.71    0.79    1.00
  WS02006113WS02006111 CONDUIT   1121.69     0  02:30      2.70    1.34    1.00
  WS02006115WS02006116 CONDUIT   1340.97     0  02:13      1.71    1.72    1.00
  WS02006116WS02004401 CONDUIT   1344.47     0  02:13      1.71    1.85    1.00
  WS02006228WS02006109 CONDUIT   1288.85     0  02:13      2.56    5.63    1.00
  WS02006229WS02006228 CONDUIT   1287.98     0  02:11      2.56    4.27    1.00
  WS02006230WS02006229 CONDUIT   1016.53     0  02:13      2.64   22.62    1.00
  WS02006231WS02006230 CONDUIT    467.89     0  03:21      1.34    7.10    1.00
  WS02006232WS02006231 CONDUIT    467.83     0  03:21      1.22    0.98    1.00
  WS02006234WS02006232 CONDUIT    467.78     0  03:21      1.41    0.95    1.00
  WS02006235WS02006234 CONDUIT    467.70     0  03:21      1.23    4.93    1.00
  WS02006238WS02006235 CONDUIT    419.08     0  03:40      1.45    0.94    1.00
  WS02006239WS02006238 CONDUIT    418.96     0  03:40      1.12    1.34    1.00
  WS02006240WS02006239 CONDUIT    418.92     0  03:40      1.26    1.32    1.00
  WS02006242WS02006240 CONDUIT    418.85     0  03:40      1.14    1.66    1.00
  WS02006243WS02006242 CONDUIT    418.82     0  03:40      1.34    0.89    1.00
  WS02006245WS02006243 CONDUIT    418.78     0  03:40      1.39    1.24    1.00
  WS02006247WS02006245 CONDUIT    418.73     0  03:40      1.37    3.32    1.00
  WS02006248WS02006247 CONDUIT    418.67     0  03:40      1.38    0.91    1.00
  WS02006249WS02006248 CONDUIT    418.93     0  03:42      1.38    2.29    1.00
  WS02006251WS02006249 CONDUIT   1378.13     0  02:13      3.58    3.97    1.00
  WS02006252WS02006251 CONDUIT    409.00     0  01:39     24.89    1.50    1.00
  WS02006253WS02006251 CONDUIT   1703.01     0  02:13      4.43    5.11    1.00
  WS02006256WS02006235 CONDUIT    288.93     0  00:00      4.23    3.06    1.00
  WS02006280WS02006229 CONDUIT   2305.24     0  02:11      3.95    0.49    1.00
  WS02006284WS02006280 CONDUIT   2303.85     0  02:11      2.96    0.96    1.00
  WS02006287WS02006284 CONDUIT   2303.70     0  02:11      2.93    1.07    1.00
  WSF200WS02003060     CONDUIT   1338.94     0  02:14      2.31    0.30    0.51
  YS02001580YS02001583 CONDUIT     91.66     0  01:36      0.61    0.36    1.00
  YS02001583YS02001586 CONDUIT    145.36     0  01:35      0.61    0.22    1.00
  YS02001586YS02001590 CONDUIT    318.52     0  02:13      1.26    0.56    1.00
  YS02001590YS02001593 CONDUIT    318.30     0  01:57      1.13    2.00    1.00
  YS02001593YS02001596 CONDUIT    318.00     0  02:00      1.68    0.50    1.00
  YS02001596YS02001600 CONDUIT    318.12     0  02:25      1.24    0.62    1.00
  YS02001600YS02001601 CONDUIT    318.17     0  02:13      1.13    0.55    1.00
  YS02001601YS02001602 CONDUIT    508.78     0  01:35      1.80    1.84    1.00
  YS02001602YS02001605 CONDUIT    509.01     0  01:35      1.80   10.77    1.00
  YS02001605YS02001607 CONDUIT    509.13     0  01:35      1.80    2.79    1.00
  YS02001607YS02001610 CONDUIT    514.89     0  01:35      0.66    0.49    1.00
  YS02001610YS02001613 CONDUIT    618.90     0  02:01      0.79    0.71    1.00
  YS02001613YS02001616 CONDUIT    618.88     0  01:58      0.79    0.53    1.00
  YS02001616YS02001619 CONDUIT    620.25     0  01:58      0.79    1.08    1.00
  YS02001619YS02001622 CONDUIT   1053.95     0  01:57      1.34    1.55    1.00
  YS02001622YS02001625 CONDUIT   1053.69     0  02:01      1.34    0.56    1.00
  YS02001625YS02001629 CONDUIT    927.29     0  01:39      1.18    0.44    1.00
  YS02001629YS02163301 CONDUIT   1048.38     0  01:50      1.33    1.29    1.00
  YS02001633YS02163601 CONDUIT   1370.42     0  01:39      1.74    1.44    1.00
  YS02001641YS02001644 CONDUIT   1368.26     0  01:39      1.74    4.42    1.00
  YS02001644YS02001647 CONDUIT   1746.24     0  01:39      2.24    1.03    1.00
  YS02001647YS02001649 CONDUIT   1746.26     0  01:39      2.31    0.92    1.00
  YS02001649YS02001757 CONDUIT   1929.00     0  01:39      2.50    1.17    1.00
  YS02001652YS02001649 CONDUIT   1633.59     0  01:50      2.08    0.81    1.00
  YS02001655YS02001652 CONDUIT   1633.34     0  01:50      2.08    0.79    1.00
  YS02001658YS02001655 CONDUIT   1632.85     0  01:50      2.08    0.69    1.00
  YS02001661YS02001658 CONDUIT   1632.26     0  01:50      2.27    0.64    1.00
  YS02001664YS02001661 CONDUIT   1632.15     0  01:50      2.24    0.51    1.00
  YS02001745YS02001748 CONDUIT    964.07     0  01:49      2.08    0.37    1.00
  YS02001748YS02001751 CONDUIT    965.60     0  01:49      1.65    0.49    1.00
  YS02001751YS02001754 CONDUIT    967.05     0  01:49      1.40    0.47    1.00
  YS02001754YS02001757 CONDUIT    968.65     0  01:49      1.23    0.39    1.00
  YS02001757CaochengTiaoxuchi CONDUIT   3229.85     0  01:48      4.11    1.40    1.00
  YS02001759YS02001757 CONDUIT   1411.58     0  01:47      1.80    1.00    1.00
  YS02001762YS02001759 CONDUIT    706.67     0  01:43      0.90    0.81    1.00
  YS02001765YS02001762 CONDUIT    705.93     0  01:43      0.90    0.66    1.00
  YS02001767YS02001765 CONDUIT    706.50     0  01:43      0.90    0.89    1.00
  YS02001770YS02001767 CONDUIT    707.34     0  01:43      0.90    2.80    1.00
  YS02001774YS02001770 CONDUIT    852.03     0  01:55      1.08    0.54    1.00
  YS02001779YS02001774 CONDUIT    851.73     0  01:56      1.08    0.43    1.00
  YS02001783YS02001784 CONDUIT   1186.83     0  01:49      2.36    1.64    1.00
  YS02001784YS02001785 CONDUIT   1187.87     0  01:49      2.36    2.76    1.00
  YS02001786YS02001788 CONDUIT   1187.68     0  01:48      2.51    2.29    0.90
  YS02001788YS02001790 CONDUIT   1200.53     0  01:49      2.74    0.88    0.85
  YS02001790YS02001791 CONDUIT   1306.33     0  01:49      3.44    1.42    0.71
  YS02001791YS02001793 CONDUIT   1282.96     0  01:49      6.79    0.55    0.45
  YS02001793JiankangQianchi CONDUIT   1341.12     0  01:49      2.65    0.11    0.65
  YS02001882YS02001884 CONDUIT     33.49     0  01:38      0.20    0.04    1.00
  YS02001884YS02001887 CONDUIT     75.04     0  01:38      0.15    0.10    1.00
  YS02001887YS02001890 CONDUIT   1488.24     0  01:49      1.89    2.55    1.00
  YS02001890YS02001895 CONDUIT    517.74     0  01:57      0.66    0.24    1.00
  YS02001895YS02001898 CONDUIT    517.67     0  01:59      0.66    0.90    1.00
  YS02001898YS02001901 CONDUIT    517.87     0  02:00      0.66    0.33    1.00
  YS02001901YS02001904 CONDUIT    517.95     0  01:57      0.66    0.80    1.00
  YS02001904YS02001907 CONDUIT    518.04     0  01:57      0.66    0.18    1.00
  YS02001907YS02006553 CONDUIT    786.55     0  02:16      0.87    0.93    1.00
  YS02001910YS02001907 CONDUIT   1992.90     0  01:52      2.54    1.12    1.00
  YS02001915YS02001910 CONDUIT   1993.04     0  01:52      2.54    0.99    1.00
  YS02001918YS02001915 CONDUIT    853.50     0  01:51      1.09    0.47    1.00
  YS02001920YS02001918 CONDUIT    852.87     0  01:51      1.09    0.82    1.00
  YS02001923YS02001920 CONDUIT    849.43     0  01:51      1.08    0.38    1.00
  YS02001926YS02001923 CONDUIT    848.75     0  01:51      1.08    1.21    1.00
  YS02001929YS02001926 CONDUIT    847.98     0  01:51      1.12    0.40    1.00
  YS02006553YS02006556 CONDUIT    786.24     0  02:16      1.00    0.67    1.00
  YS02006556YS02006558 CONDUIT    786.70     0  02:17      1.00    0.62    1.00
  YS02006558YS02006561 CONDUIT   1186.69     0  01:49      4.20    2.62    1.00
  YS02006561YS02001783 CONDUIT   1186.84     0  01:49      2.36    0.61    1.00
  YS02163301YS02001633 CONDUIT   1047.53     0  01:50      1.33    0.98    1.00
  YS02163601YS02164001 CONDUIT   1369.10     0  01:39      1.74    1.21    1.00
  YS02164001YS02001641 CONDUIT   1367.99     0  01:39      1.74    1.87    1.00
  YSB1154YSB6556       CONDUIT    467.07     0  02:13      1.21    0.84    1.00
  YSB1171HS02004479    CONDUIT    386.06     0  02:05      0.77    0.26    1.00
  YSB1174YSB1171       CONDUIT    391.85     0  02:13      1.02    0.60    1.00
  YSB6556YSB1171       CONDUIT    467.40     0  02:13      1.21    0.48    1.00
  CC-R1                PUMP       683.00     0  00:00              1.00
  CC-R2                PUMP       683.00     0  00:00              1.00
  CC-S1                PUMP       200.00     0  00:00              1.00
  CC-S2                PUMP       200.00     0  00:00              1.00
  JK-R1                PUMP      1000.00     0  00:00              1.00
  JK-R2                PUMP      1000.00     0  00:00              1.00
  JK-S                 PUMP       300.00     0  00:00              1.00
  XR-1                 PUMP        95.00     0  00:00              1.00
  XR-2                 PUMP        95.00     0  00:00              1.00
  XR-3                 PUMP        95.00     0  00:00              1.00
  XR-4                 PUMP        95.00     0  00:00              1.00
  
  
  ***************************
  Flow Classification Summary
  ***************************
  
  -------------------------------------------------------------------------------------
                      Adjusted    ---------- Fraction of Time in Flow Class ---------- 
                       /Actual         Up    Down  Sub   Sup   Up    Down  Norm  Inlet 
  Conduit               Length    Dry  Dry   Dry   Crit  Crit  Crit  Crit  Ltd   Ctrl  
  -------------------------------------------------------------------------------------
  1                       1.00   0.00  0.00  0.00  0.00  1.00  0.00  0.00  0.41  0.00
  HS02004478WS02006287    1.00   0.10  0.00  0.00  0.60  0.30  0.00  0.00  0.59  0.00
  HS02004479HS02004480    1.00   0.04  0.00  0.00  0.96  0.00  0.00  0.00  0.11  0.00
  HS02004480HS02004478    1.00   0.09  0.00  0.00  0.53  0.00  0.00  0.38  0.00  0.00
  HS02004770HS02004777    1.00   0.00  0.09  0.00  0.91  0.00  0.00  0.00  0.02  0.00
  HS02004777HS02004785    1.00   0.00  0.00  0.00  1.00  0.00  0.00  0.00  0.11  0.00
  HS02004785HS02004788    1.00   0.00  0.00  0.00  1.00  0.00  0.00  0.00  0.00  0.00
  HS02004788HS02004792    1.00   0.00  0.00  0.00  0.99  0.01  0.00  0.00  0.89  0.00
  HS02004792HS02004799    1.00   0.00  0.00  0.00  0.99  0.01  0.00  0.00  0.85  0.00
  HS02004799HS02004480    1.00   0.00  0.04  0.00  0.90  0.00  0.06  0.00  0.00  0.00
  HS02004802HS02004478    1.00   0.09  0.00  0.00  0.91  0.00  0.00  0.00  0.02  0.00
  HS02004807HS02004802    1.00   0.09  0.00  0.00  0.90  0.00  0.00  0.01  0.00  0.00
  HS02004817HS02004807    1.00   0.00  0.09  0.00  0.91  0.00  0.00  0.00  0.01  0.00
  HS02004817HS02004824    1.00   0.00  0.00  0.00  1.00  0.00  0.00  0.00  0.81  0.00
  HS02004824HS02004830    1.00   0.00  0.00  0.00  1.00  0.00  0.00  0.00  0.01  0.00
  HS02004830HS02004837    1.00   0.00  0.00  0.00  1.00  0.00  0.00  0.00  0.87  0.00
  HS02004837HS02004842    1.00   0.00  0.00  0.00  1.00  0.00  0.00  0.00  0.11  0.00
  HS02004842HS02004848    1.00   0.00  0.09  0.00  0.91  0.00  0.00  0.00  0.56  0.00
  HS02004848HS02004852    1.00   0.09  0.00  0.00  0.91  0.00  0.00  0.00  0.69  0.00
  HS02004852HS02004856    1.00   0.09  0.00  0.00  0.91  0.00  0.00  0.00  0.67  0.00
  HS02004856HS02004862    1.00   0.00  0.10  0.00  0.90  0.00  0.00  0.00  0.74  0.00
  HS02004862HS02004870    1.00   0.00  0.00  0.00  1.00  0.00  0.00  0.00  0.03  0.00
  HS02004870HS02004876    1.00   0.00  0.00  0.00  0.98  0.01  0.00  0.00  0.85  0.00
  HS02004876HS02004881    1.00   0.02  0.00  0.00  0.73  0.25  0.00  0.00  0.00  0.00
  HS02004881HS02006253    1.00   0.03  0.02  0.00  0.46  0.01  0.00  0.48  0.19  0.00
  HS02004901HS02004770    1.00   0.09  0.00  0.00  0.91  0.00  0.00  0.00  0.00  0.00
  WS02001211WS02001212    1.00   0.00  0.03  0.00  0.97  0.00  0.00  0.00  0.00  0.00
  WS02001212WS02001213    1.00   0.03  0.00  0.00  0.46  0.00  0.51  0.00  0.00  0.00
  WS02001213WS02003059    1.00   0.00  0.00  0.00  0.99  0.00  0.00  0.00  0.00  0.00
  WS02003059WS02003060    1.00   0.00  0.00  0.00  1.00  0.00  0.00  0.00  0.03  0.00
  WS02003060WS02003069    1.00   0.00  0.00  0.00  0.99  0.01  0.00  0.00  0.57  0.00
  WS02003066WSF200        1.00   0.06  0.00  0.00  0.00  0.94  0.00  0.00  0.64  0.00
  WS02003067WS02003066    1.00   0.05  0.00  0.00  0.94  0.00  0.00  0.00  0.00  0.00
  WS02003069WS02003072    1.00   0.00  0.00  0.00  1.00  0.00  0.00  0.00  0.66  0.00
  WS02003072WS02003073    1.00   0.00  0.00  0.00  0.00  0.00  0.00  1.00  0.00  0.00
  WS02004138WS02004139    1.00   0.00  0.01  0.00  0.97  0.01  0.00  0.02  0.98  0.00
  WS02004139WS02001211    1.00   0.00  0.00  0.00  0.99  0.00  0.00  0.00  0.00  0.00
  WS02004401WS02004402    1.00   0.03  0.00  0.00  0.97  0.00  0.00  0.00  0.00  0.00
  WS02004402WS02004403    1.00   0.03  0.00  0.00  0.97  0.00  0.00  0.00  0.00  0.00
  WS02004403WS02004404    1.00   0.00  0.03  0.00  0.97  0.00  0.00  0.00  0.00  0.00
  WS02004404WS02004405    1.00   0.00  0.00  0.00  1.00  0.00  0.00  0.00  0.01  0.00
  WS02004405WS02004406    1.00   0.00  0.00  0.00  1.00  0.00  0.00  0.00  0.00  0.00
  WS02004406WS02004407    1.00   0.00  0.04  0.00  0.96  0.00  0.00  0.00  0.00  0.00
  WS02004407WS02004409    1.00   0.04  0.00  0.00  0.95  0.01  0.00  0.00  0.82  0.00
  WS02004409WS02004410    1.00   0.04  0.00  0.00  0.96  0.00  0.00  0.00  0.00  0.00
  WS02004410WS02004411    1.00   0.04  0.00  0.00  0.96  0.00  0.00  0.00  0.00  0.00
  WS02004411WS02004412    1.00   0.04  0.00  0.00  0.96  0.00  0.00  0.00  0.00  0.00
  WS02004412WS02004413    1.00   0.04  0.00  0.00  0.95  0.00  0.00  0.00  0.00  0.00
  WS02004413WS02003067    1.00   0.05  0.01  0.00  0.00  0.00  0.95  0.00  0.00  0.00
  WS02006109WS02006110    1.00   0.00  0.01  0.00  0.98  0.00  0.01  0.00  0.00  0.00
  WS02006110WS02006113    1.00   0.01  0.01  0.00  0.98  0.00  0.00  0.00  0.00  0.00
  WS02006111WS02006112    1.00   0.02  0.00  0.00  0.97  0.00  0.00  0.00  0.75  0.00
  WS02006112WS02006115    1.00   0.02  0.00  0.00  0.97  0.00  0.00  0.00  0.00  0.00
  WS02006113WS02006111    1.00   0.02  0.00  0.00  0.32  0.66  0.00  0.00  0.08  0.00
  WS02006115WS02006116    1.00   0.03  0.00  0.00  0.97  0.00  0.00  0.01  0.00  0.00
  WS02006116WS02004401    1.00   0.03  0.00  0.00  0.97  0.00  0.00  0.00  0.00  0.00
  WS02006228WS02006109    1.00   0.00  0.00  0.00  1.00  0.00  0.00  0.00  0.00  0.00
  WS02006229WS02006228    1.00   0.00  0.00  0.00  0.99  0.00  0.00  0.01  0.00  0.00
  WS02006230WS02006229    1.00   0.00  0.00  0.00  0.98  0.00  0.00  0.02  0.01  0.00
  WS02006231WS02006230    1.00   0.00  0.00  0.00  0.52  0.00  0.48  0.00  0.00  0.00
[...]
  WS02006284WS02006280    1.00   0.09  0.00  0.00  0.17  0.02  0.00  0.71  0.00  0.00
  WS02006287WS02006284    1.00   0.08  0.02  0.00  0.49  0.41  0.00  0.00  0.65  0.00
  WSF200WS02003060        1.00   0.00  0.06  0.00  0.49  0.45  0.00  0.00  0.63  0.00
  YS02001580YS02001583    1.00   0.15  0.42  0.00  0.43  0.00  0.00  0.00  0.63  0.00
  YS02001583YS02001586    1.00   0.32  0.18  0.00  0.49  0.00  0.01  0.00  0.64  0.00
  YS02001586YS02001590    1.00   0.09  0.00  0.00  0.61  0.02  0.00  0.28  0.29  0.00
  YS02001590YS02001593    1.00   0.09  0.00  0.00  0.33  0.00  0.58  0.00  0.00  0.00
  YS02001593YS02001596    1.00   0.09  0.00  0.00  0.35  0.01  0.00  0.55  0.01  0.00
  YS02001596YS02001600    1.00   0.09  0.00  0.00  0.40  0.01  0.00  0.50  0.03  0.00
  YS02001600YS02001601    1.00   0.09  0.00  0.00  0.91  0.00  0.00  0.00  0.58  0.00
  YS02001601YS02001602    1.00   0.09  0.00  0.00  0.91  0.00  0.00  0.00  0.00  0.00
  YS02001602YS02001605    1.00   0.09  0.00  0.00  0.91  0.00  0.00  0.00  0.00  0.00
  YS02001605YS02001607    1.00   0.09  0.00  0.00  0.91  0.00  0.00  0.00  0.00  0.00
  YS02001607YS02001610    1.00   0.09  0.00  0.00  0.91  0.00  0.00  0.00  0.01  0.00
  YS02001610YS02001613    1.00   0.09  0.00  0.00  0.91  0.00  0.00  0.00  0.00  0.00
  YS02001613YS02001616    1.00   0.09  0.00  0.00  0.91  0.00  0.00  0.00  0.00  0.00
  YS02001616YS02001619    1.00   0.09  0.00  0.00  0.91  0.00  0.00  0.00  0.00  0.00
  YS02001619YS02001622    1.00   0.09  0.00  0.00  0.91  0.00  0.00  0.00  0.33  0.00
  YS02001622YS02001625    1.00   0.09  0.00  0.00  0.91  0.00  0.00  0.00  0.02  0.00
  YS02001625YS02001629    1.00   0.09  0.01  0.00  0.38  0.00  0.51  0.00  0.00  0.00
  YS02001629YS02163301    1.00   0.09  0.00  0.00  0.90  0.00  0.00  0.00  0.00  0.00
  YS02001633YS02163601    1.00   0.00  0.01  0.00  0.99  0.00  0.00  0.00  0.14  0.00
  YS02001641YS02001644    1.00   0.00  0.00  0.00  0.99  0.00  0.00  0.00  0.00  0.00
  YS02001644YS02001647    1.00   0.00  0.10  0.00  0.90  0.00  0.00  0.00  0.00  0.00
  YS02001647YS02001649    1.00   0.00  0.10  0.00  0.71  0.19  0.00  0.00  0.58  0.00
  YS02001649YS02001757    1.00   0.00  0.00  0.00  0.80  0.20  0.00  0.00  0.45  0.00
  YS02001652YS02001649    1.00   0.00  0.00  0.00  0.99  0.01  0.00  0.00  0.70  0.00
  YS02001655YS02001652    1.00   0.00  0.00  0.00  0.43  0.01  0.00  0.57  0.03  0.00
  YS02001658YS02001655    1.00   0.00  0.09  0.00  0.75  0.16  0.00  0.00  0.61  0.00
  YS02001661YS02001658    1.00   0.09  0.00  0.00  0.59  0.32  0.00  0.00  0.64  0.00
  YS02001664YS02001661    1.00   0.09  0.00  0.00  0.78  0.13  0.00  0.00  0.81  0.00
  YS02001745YS02001748    1.00   0.00  0.00  0.00  0.29  0.00  0.00  0.71  0.04  0.00
  YS02001748YS02001751    1.00   0.00  0.00  0.00  0.87  0.13  0.00  0.00  0.72  0.00
  YS02001751YS02001754    1.00   0.00  0.00  0.00  0.41  0.01  0.00  0.58  0.03  0.00
  YS02001754YS02001757    1.00   0.00  0.00  0.00  1.00  0.00  0.00  0.00  0.75  0.00
  YS02001757CaochengTiaoxuchi    1.00   0.00  0.00  0.00  0.96  0.04  0.00  0.00  0.72  0.00
  YS02001759YS02001757    1.00   0.00  0.00  0.00  0.99  0.01  0.00  0.00  0.61  0.00
  YS02001762YS02001759    1.00   0.00  0.00  0.00  1.00  0.00  0.00  0.00  0.02  0.00
  YS02001765YS02001762    1.00   0.00  0.00  0.00  1.00  0.00  0.00  0.00  0.68  0.00
  YS02001767YS02001765    1.00   0.00  0.00  0.00  1.00  0.00  0.00  0.00  0.00  0.00
  YS02001770YS02001767    1.00   0.00  0.00  0.00  1.00  0.00  0.00  0.00  0.00  0.00
  YS02001774YS02001770    1.00   0.00  0.09  0.00  0.74  0.00  0.17  0.00  0.01  0.00
  YS02001779YS02001774    1.00   0.00  0.00  0.00  1.00  0.00  0.00  0.00  0.72  0.00
  YS02001783YS02001784    1.00   0.00  0.10  0.00  0.90  0.00  0.00  0.00  0.56  0.00
  YS02001784YS02001785    1.00   0.00  0.00  0.00  1.00  0.00  0.00  0.00  0.15  0.00
  YS02001786YS02001788    1.00   0.00  0.00  0.00  0.67  0.33  0.00  0.00  0.00  0.00
  YS02001788YS02001790    1.00   0.00  0.00  0.00  0.16  0.84  0.00  0.00  0.77  0.00
  YS02001790YS02001791    1.00   0.00  0.00  0.00  0.01  0.99  0.00  0.00  0.15  0.00
  YS02001791YS02001793    1.00   0.00  0.00  0.00  0.00  1.00  0.00  0.00  0.01  0.00
  YS02001793JiankangQianchi    1.00   0.00  0.00  0.00  0.91  0.09  0.00  0.00  0.96  0.00
  YS02001882YS02001884    1.00   0.09  0.00  0.00  0.90  0.00  0.00  0.00  0.00  0.00
  YS02001884YS02001887    1.00   0.06  0.03  0.00  0.92  0.00  0.00  0.00  0.00  0.00
  YS02001887YS02001890    1.00   0.00  0.00  0.00  0.96  0.00  0.03  0.00  0.00  0.00
  YS02001890YS02001895    1.00   0.00  0.09  0.00  0.90  0.00  0.00  0.00  0.00  0.00
  YS02001895YS02001898    1.00   0.10  0.00  0.00  0.90  0.00  0.01  0.00  0.00  0.00
  YS02001898YS02001901    1.00   0.10  0.00  0.00  0.90  0.00  0.00  0.00  0.00  0.00
  YS02001901YS02001904    1.00   0.10  0.00  0.00  0.90  0.00  0.00  0.00  0.00  0.00
  YS02001904YS02001907    1.00   0.00  0.09  0.00  0.90  0.00  0.00  0.00  0.00  0.00
  YS02001907YS02006553    1.00   0.00  0.02  0.00  0.97  0.00  0.00  0.00  0.00  0.00
  YS02001910YS02001907    1.00   0.00  0.00  0.00  0.97  0.00  0.00  0.03  0.11  0.00
  YS02001915YS02001910    1.00   0.00  0.00  0.00  0.97  0.03  0.00  0.00  0.12  0.00
  YS02001918YS02001915    1.00   0.00  0.00  0.00  0.97  0.02  0.00  0.00  0.70  0.00
  YS02001920YS02001918    1.00   0.00  0.00  0.00  1.00  0.00  0.00  0.00  0.00  0.00
  YS02001923YS02001920    1.00   0.00  0.00  0.00  1.00  0.00  0.00  0.00  0.88  0.00
  YS02001926YS02001923    1.00   0.00  0.06  0.00  0.14  0.00  0.79  0.00  0.00  0.00
  YS02001929YS02001926    1.00   0.00  0.09  0.00  0.91  0.00  0.00  0.00  0.79  0.00
  YS02006553YS02006556    1.00   0.01  0.00  0.00  0.99  0.00  0.00  0.00  0.03  0.00
  YS02006556YS02006558    1.00   0.00  0.00  0.00  1.00  0.00  0.00  0.00  0.00  0.00
  YS02006558YS02006561    1.00   0.10  0.00  0.00  0.14  0.76  0.00  0.00  0.14  0.00
  YS02006561YS02001783    1.00   0.10  0.00  0.00  0.22  0.68  0.00  0.00  0.65  0.00
  YS02163301YS02001633    1.00   0.00  0.09  0.00  0.91  0.00  0.00  0.00  0.00  0.00
  YS02163601YS02164001    1.00   0.00  0.07  0.00  0.93  0.00  0.00  0.00  0.00  0.00
  YS02164001YS02001641    1.00   0.01  0.06  0.00  0.93  0.00  0.00  0.00  0.05  0.00
  YSB1154YSB6556          1.00   0.09  0.00  0.00  0.91  0.00  0.00  0.00  0.02  0.00
  YSB1171HS02004479       1.00   0.04  0.00  0.00  0.95  0.00  0.00  0.01  0.10  0.00
  YSB1174YSB1171          1.00   0.05  0.02  0.00  0.93  0.00  0.00  0.00  0.00  0.00
  YSB6556YSB1171          1.00   0.04  0.04  0.00  0.91  0.00  0.00  0.00  0.00  0.00
  
  
  *************************
  Conduit Surcharge Summary
  *************************
  
  ----------------------------------------------------------------------------
                                                           Hours        Hours 
                         --------- Hours Full --------   Above Full   Capacity
  Conduit                Both Ends  Upstream  Dnstream   Normal Flow   Limited
  ----------------------------------------------------------------------------
  HS02004478WS02006287        0.52      0.52      0.71      0.01         0.01
  HS02004479HS02004480        0.70      0.70      0.73      0.01         0.01
  HS02004480HS02004478        0.63      0.70      0.63      1.72         0.63
  HS02004770HS02004777        0.60      0.60      0.61      0.11         0.07
  HS02004777HS02004785        0.56      0.56      0.61      0.01         0.01
  HS02004785HS02004788        0.55      0.56      0.55      1.47         0.49
  HS02004788HS02004792        0.55      0.55      0.67      0.01         0.01
  HS02004792HS02004799        0.67      0.67      0.80      0.01         0.01
  HS02004799HS02004480        0.70      0.70      0.80      0.90         0.01
  HS02004802HS02004478        0.65      0.65      0.72      0.13         0.01
  HS02004807HS02004802        0.68      0.68      0.71      0.28         0.30
  HS02004817HS02004807        0.68      0.68      1.29      0.01         0.01
  HS02004817HS02004824        0.55      0.55      1.29      0.01         0.01
  HS02004824HS02004830        0.52      0.52      0.55      0.01         0.01
  HS02004830HS02004837        0.48      0.48      0.52      0.01         0.01
  HS02004837HS02004842        0.48      0.48      0.61      0.01         0.01
  HS02004842HS02004848        0.44      0.44      0.61      0.01         0.01
  HS02004848HS02004852        0.44      0.44      0.46      0.02         0.01
  HS02004852HS02004856        0.46      0.46      0.49      0.02         0.01
  HS02004856HS02004862        0.46      0.46      0.49      0.01         0.01
  HS02004862HS02004870        0.49      0.49      0.51      0.24         0.24
  HS02004870HS02004876        0.51      0.51      0.58      0.01         0.01
  HS02004876HS02004881        0.56      0.58      0.56      1.47         0.56
  HS02004881HS02006253        0.56      0.56      2.16      0.01         0.01
  HS02004901HS02004770        0.60      0.60      0.61      0.01         0.01
  WS02003072WS02003073        0.01      0.01      0.01      2.48         0.01
  WS02004401WS02004402        1.72      1.72      1.73      1.50         1.50
  WS02004402WS02004403        1.73      1.73      1.73      1.72         1.71
  WS02004403WS02004404        1.73      1.73      1.82      0.01         0.03
  WS02004404WS02004405        1.79      1.82      1.79      3.04         1.79
  WS02004405WS02004406        1.77      1.79      1.77      2.18         1.77
  WS02004406WS02004407        0.01      0.01      1.77      0.01         0.01
  WS02004407WS02004409        0.01      0.01      1.13      0.01         0.01
  WS02004409WS02004410        1.05      1.13      1.05      1.58         1.05
  WS02004410WS02004411        0.94      1.05      0.94      1.66         0.94
  WS02004411WS02004412        0.83      0.94      0.83      1.70         0.83
  WS02004412WS02004413        0.83      0.83      1.43      0.01         0.01
  WS02004413WS02003067        0.01      0.01      1.43      0.01         0.01
  WS02006109WS02006110        2.11      2.11      2.34      2.12         0.01
  WS02006110WS02006113        1.41      1.41      2.33      0.28         0.01
  WS02006111WS02006112        1.40      1.40      2.42      0.01         0.01
  WS02006112WS02006115        1.60      1.60      2.22      0.01         0.01
  WS02006113WS02006111        1.40      1.41      1.41      1.49         1.40
  WS02006115WS02006116        1.61      1.61      1.62      1.57         1.56
  WS02006116WS02004401        1.72      1.72      1.72      1.67         1.66
  WS02006228WS02006109        2.32      2.34      2.32      2.59         2.32
  WS02006229WS02006228        2.32      2.33      2.32      2.42         2.32
  WS02006230WS02006229        2.35      2.36      2.35      3.17         1.26
  WS02006231WS02006230        1.87      1.87      2.15      2.85         1.04
  WS02006232WS02006231        2.11      2.11      2.27      0.01         0.16
  WS02006234WS02006232        2.22      2.22      2.27      0.01         0.01
  WS02006235WS02006234        2.21      2.21      2.23      2.65         1.03
  WS02006238WS02006235        2.23      2.23      2.24      0.01         0.43
  WS02006239WS02006238        2.23      2.23      2.24      1.46         0.49
  WS02006240WS02006239        2.22      2.22      2.22      1.45         0.48
  WS02006242WS02006240        2.22      2.22      2.23      1.67         0.96
  WS02006243WS02006242        2.21      2.21      2.23      0.01         0.01
  WS02006245WS02006243        2.20      2.20      2.21      0.55         0.46
  WS02006247WS02006245        2.19      2.20      2.19      2.08         0.84
  WS02006248WS02006247        2.18      2.19      2.20      0.01         0.01
  WS02006249WS02006248        2.18      2.18      2.19      0.88         0.01
  WS02006251WS02006249        2.18      2.18      2.19      2.28         2.16
  WS02006252WS02006251        2.30      2.30      2.30      1.98         0.07
  WS02006253WS02006251        2.17      2.18      2.18      0.82         0.01
  WS02006256WS02006235        2.91      2.91      5.01      1.19         0.01
  WS02006280WS02006229        0.84      0.84      0.99      0.01         0.01
  WS02006284WS02006280        0.73      0.73      0.82      0.01         0.01
  WS02006287WS02006284        0.62      0.62      0.74      0.32         0.32
  YS02001580YS02001583        1.04      1.04      1.12      0.01         0.01
  YS02001583YS02001586        1.05      1.05      1.26      0.01         0.01
  YS02001586YS02001590        1.26      1.26      1.36      0.01         0.01
  YS02001590YS02001593        1.36      1.36      1.38      1.40         0.01
  YS02001593YS02001596        1.38      1.38      1.51      0.01         0.01
  YS02001596YS02001600        1.56      1.56      1.63      0.01         0.01
  YS02001600YS02001601        1.66      1.66      1.85      0.01         0.01
  YS02001601YS02001602        1.78      1.78      1.87      1.62         0.01
  YS02001602YS02001605        1.75      1.75      1.78      2.42         0.01
  YS02001605YS02001607        1.72      1.75      1.73      1.79         1.69
  YS02001607YS02001610        1.40      1.40      1.44      0.01         0.01
  YS02001610YS02001613        1.40      1.40      1.44      0.01         0.01
  YS02001613YS02001616        1.34      1.34      1.40      0.01         0.01
  YS02001616YS02001619        1.33      1.33      1.34      0.24         0.20
  YS02001619YS02001622        1.33      1.33      1.33      1.25         1.10
  YS02001622YS02001625        1.33      1.33      1.52      0.01         0.01
  YS02001625YS02001629        1.28      1.28      1.52      0.01         0.01
  YS02001629YS02163301        1.52      1.52      1.53      0.18         0.10
  YS02001633YS02163601        1.55      1.55      1.58      0.11         0.16
  YS02001641YS02001644        1.49      1.51      1.49      1.90         1.45
  YS02001644YS02001647        1.30      1.30      1.49      0.02         0.01
  YS02001647YS02001649        1.30      1.30      1.42      0.01         0.01
  YS02001649YS02001757        1.42      1.42      1.49      0.10         0.04
  YS02001652YS02001649        1.26      1.26      1.42      0.01         0.01
  YS02001655YS02001652        1.01      1.01      1.23      0.01         0.01
  YS02001658YS02001655        0.57      0.57      1.01      0.01         0.01
  YS02001661YS02001658        0.24      0.24      0.57      0.01         0.01
  YS02001664YS02001661        0.07      0.07      0.30      0.01         0.01
  YS02001745YS02001748        0.06      0.06      0.46      0.01         0.01
  YS02001748YS02001751        0.53      0.53      0.86      0.01         0.01
  YS02001751YS02001754        0.86      0.86      1.15      0.01         0.01
  YS02001754YS02001757        1.19      1.19      1.49      0.01         0.01
  YS02001757CaochengTiaoxuchi        1.49      1.49      1.92      0.55         0.52
  YS02001759YS02001757        1.41      1.41      1.49      0.01         0.03
  YS02001762YS02001759        1.39      1.39      1.41      0.01         0.02
  YS02001765YS02001762        1.35      1.35      1.39      0.01         0.01
  YS02001767YS02001765        1.33      1.33      1.35      0.01         0.02
  YS02001770YS02001767        1.32      1.33      1.33      0.74         0.71
  YS02001774YS02001770        1.29      1.29      1.37      0.01         0.01
  YS02001779YS02001774        1.13      1.13      1.37      0.01         0.01
  YS02001783YS02001784        0.79      0.82      0.79      1.02         0.79
  YS02001784YS02001785        0.66      0.79      0.66      1.38         0.66
  YS02001786YS02001788        0.01      0.66      0.01      1.16         0.01
  YS02001790YS02001791        0.01      0.01      0.01      0.77         0.01
  YS02001793JiankangQianchi        0.01      0.01      7.68      0.01         0.01
  YS02001882YS02001884        0.75      0.75      0.76      0.01         0.01
  YS02001884YS02001887        0.79      0.79      0.81      0.01         0.01
  YS02001887YS02001890        0.83      0.83      0.84      0.29         0.01
  YS02001890YS02001895        0.74      0.74      0.86      0.01         0.01
  YS02001895YS02001898        0.73      0.73      0.74      0.01         0.01
  YS02001898YS02001901        0.74      0.74      0.79      0.01         0.01
  YS02001901YS02001904        0.78      0.78      0.79      0.01         0.01
  YS02001904YS02001907        0.78      0.78      1.13      0.01         0.01
  YS02001907YS02006553        1.39      1.39      1.49      0.01         0.01
  YS02001910YS02001907        0.86      0.86      1.10      0.18         0.18
  YS02001915YS02001910        0.75      0.75      0.86      0.01         0.01
  YS02001918YS02001915        0.64      0.64      0.75      0.01         0.01
  YS02001920YS02001918        0.64      0.64      0.66      0.01         0.01
  YS02001923YS02001920        0.59      0.59      0.66      0.01         0.01
  YS02001926YS02001923        0.30      0.30      0.32      0.14         0.01
  YS02001929YS02001926        0.20      0.20      0.32      0.01         0.01
  YS02006553YS02006556        0.98      0.98      1.13      0.01         0.01
  YS02006556YS02006558        1.05      1.05      1.17      0.01         0.01
  YS02006558YS02006561        0.68      0.97      0.68      1.31         0.68
  YS02006561YS02001783        0.60      0.60      0.82      0.01         0.01
  YS02163301YS02001633        1.53      1.53      1.56      0.01         0.01
  YS02163601YS02164001        1.51      1.51      1.58      0.09         0.01
  YS02164001YS02001641        1.51      1.51      1.51      0.93         0.83
  YSB1154YSB6556              0.77      0.77      0.92      0.01         0.01
  YSB1171HS02004479           0.66      0.66      0.93      0.01         0.01
  YSB1174YSB1171              0.84      0.84      1.20      0.01         0.01
  YSB6556YSB1171              0.77      0.77      1.36      0.01         0.01
  
  
  ***************
  Pumping Summary
  ***************
  
  ---------------------------------------------------------------------------------------------------------
                                                  Min       Avg       Max     Total     Power    % Time Off
                        Percent   Number of      Flow      Flow      Flow    Volume     Usage    Pump Curve
  Pump                 Utilized   Start-Ups       LPS       LPS       LPS  10^6 ltr     Kw-hr    Low   High
  ---------------------------------------------------------------------------------------------------------
  CC-R1                   27.85           2      0.00    683.00    683.00     5.479    105.00    0.0   17.0
  CC-R2                   26.93           2      0.00    683.00    683.00     5.298    101.66    0.0   17.6
  CC-S1                   29.78           2      0.00    200.00    200.00     1.715     10.13    0.0    0.0
  CC-S2                   28.71           2      0.00    200.00    200.00     1.654      9.76    0.0    0.0
  JK-R1                   11.12           6      0.00   1000.00   1000.00     3.203     31.08    0.0    0.0
  JK-R2                    0.16           1      0.00   1000.00   1000.00     0.047      0.36    0.0    0.0
  JK-S                    25.33           3      0.00    300.00    300.00     2.188     34.94    0.0    0.0
  XR-1                    97.91           2      0.00     95.00     95.00     2.679      9.62    0.0    0.0
  XR-2                    93.94           2      0.00     95.00     95.00     2.570      8.78    0.0    0.0
  XR-3                     0.00           1      0.00     95.00     95.00     0.000      0.00    0.0    0.0
  XR-4                     0.00           1      0.00     95.00     95.00     0.000      0.00    0.0    0.0
  

  Analysis begun on:  Wed Jul 19 16:50:34 2023
  Analysis ended on:  Wed Jul 19 16:50:40 2023
  Total elapsed time: 00:00:06