
  OWA STORM WATER MANAGEMENT MODEL - VERSION v5.1.14 (OWA 2022-07-31)
  --------------------------------------------------------------

  WARNING 04: minimum elevation drop used for Conduit WS02004404WS02004405
  WARNING 03: negative offset ignored for Link YS02001904YS02001907
  
  *********************************************************
  NOTE: The summary statistics displayed in this report are
  based on results found at every computational time step,  
  not just on results from each reporting time step.
  *********************************************************
  
  ****************
  Analysis Options
  ****************
  Flow Units ............... LPS
  Process Models:
    Rainfall/Runoff ........ YES
    RDII ................... NO
    Snowmelt ............... NO
    Groundwater ............ NO
    Flow Routing ........... YES
    Ponding Allowed ........ NO
    Water Quality .......... NO
  Infiltration Method ...... HORTON
  Flow Routing Method ...... DYNWAVE
  Surcharge Method ......... EXTRAN
  Starting Date ............ 08/28/2015 08:00:00
  Ending Date .............. 08/28/2015 16:00:00
  Antecedent Dry Days ...... 8.0
  Report Time Step ......... 00:01:00
  Wet Time Step ............ 00:01:00
  Dry Time Step ............ 00:01:00
  Routing Time Step ........ 30.00 sec
  Variable Time Step ....... YES
  Maximum Trials ........... 8
  Number of Threads ........ 4
  Head Tolerance ........... 0.001500 m
  
  
  **************************        Volume         Depth
  Runoff Quantity Continuity     hectare-m            mm
  **************************     ---------       -------
  Initial LID Storage ......         0.072         1.184
  Total Precipitation ......         5.628        92.907
  Evaporation Loss .........         0.000         0.000
  Infiltration Loss ........         0.216         3.563
  Surface Runoff ...........         4.418        72.937
  Final Storage ............         1.067        17.618
  Continuity Error (%) .....        -0.028
  
  
  **************************        Volume        Volume
  Flow Routing Continuity        hectare-m      10^6 ltr
  **************************     ---------     ---------
  Dry Weather Inflow .......         0.630         6.296
  Wet Weather Inflow .......         4.418        44.181
  Groundwater Inflow .......         0.000         0.000
  RDII Inflow ..............         0.000         0.000
  External Inflow ..........         0.105         1.045
  External Outflow .........         2.603        26.032
  Flooding Loss ............         2.499        24.994
  Evaporation Loss .........         0.000         0.000
  Exfiltration Loss ........         0.000         0.000
  Initial Stored Volume ....         0.303         3.031
  Final Stored Volume ......         0.356         3.565
  Continuity Error (%) .....        -0.071
  
  
  *************************
  Highest Continuity Errors
  *************************
  Node YS02001884 (4.96%)
  Node YS02001583 (-2.91%)
  Node HS02004842 (1.45%)
  
  
  ***************************
  Time-Step Critical Elements
  ***************************
  Link WS02006280WS02006229 (53.29%)
  Link WS02004404WS02004405 (13.44%)
  Link YS02001791YS02001793 (9.78%)
  Link WS02006238WS02006235 (6.48%)
  Link YS02006556YS02006558 (2.58%)
  
  
  ********************************
  Highest Flow Instability Indexes
  ********************************
  Link WS02006238WS02006235 (27)
  Link WS02004404WS02004405 (23)
  Link WS02006113WS02006111 (23)
  Link WS02006229WS02006228 (22)
  Link WS02006256WS02006235 (21)
  
  
  *************************
  Routing Time Step Summary
  *************************
  Minimum Time Step           :     0.01 sec
  Average Time Step           :     2.61 sec
  Maximum Time Step           :     6.46 sec
  Percent in Steady State     :     0.00
  Average Iterations per Step :     3.45
  Percent Not Converging      :    13.18
  
  
  ***************************
  Subcatchment Runoff Summary
  ***************************
  
  ------------------------------------------------------------------------------------------------------------------------------
                            Total      Total      Total      Total     Imperv       Perv      Total       Total     Peak  Runoff
                           Precip      Runon       Evap      Infil     Runoff     Runoff     Runoff      Runoff   Runoff   Coeff
  Subcatchment                 mm         mm         mm         mm         mm         mm         mm    10^6 ltr      LPS
  ------------------------------------------------------------------------------------------------------------------------------
  sub0                      92.91       0.00       0.00       1.03      85.17       5.48      90.64        0.07    54.13   0.976
  sub1                      92.91       0.00       0.00       1.58      73.00       7.58      80.59        0.54   356.32   0.867
  sub10                     92.91       0.00       0.00       1.00      68.41       5.04      73.45        0.81   552.74   0.791
  sub11                     92.91       0.00       0.00       0.91      63.57       4.70      68.27        0.79   562.98   0.735
  sub12                     92.91       0.00       0.00       1.60      64.63       8.20      72.83        0.64   468.53   0.784
  sub14                     92.91       0.00       0.00       0.99      60.21       5.05      65.26        0.62   436.99   0.702
  sub15                     92.91       0.00       0.00       4.59      54.13      18.96      73.09        1.26   823.81   0.787
  sub16                     92.91       0.00       0.00       4.85      52.80      21.54      74.34        0.78   544.18   0.800
  sub17                     92.91       0.00       0.00       5.20      58.27      22.63      80.90        0.69   476.81   0.871
  sub2                      92.91       0.00       0.00       7.31      53.37      24.52      77.89        0.73   408.74   0.838
  sub22                     92.91       0.00       0.00       8.17      50.53      30.52      81.05        5.12  3167.84   0.872
  sub23                     92.91       0.00       0.00       6.12      52.03      24.89      76.93        3.67  2413.15   0.828
  sub3                      92.91       0.00       0.00       7.87      52.87      23.68      76.55        1.72   892.55   0.824
  sub4                      92.91       0.00       0.00       1.74      71.95       7.31      79.26        1.65   918.66   0.853
  sub5                      92.91       0.00       0.00       0.89      70.62       4.50      75.13        0.85   572.07   0.809
  sub60                     92.91       0.00       0.00       1.43      62.18       7.18      69.35        0.91   650.88   0.746
  sub61                     92.91       0.00       0.00       2.20      62.12      10.71      72.83        1.34   954.61   0.784
  sub62                     92.91       0.00       0.00       0.97      66.23       4.88      71.11        1.95  1323.36   0.765
  sub63                     92.91       0.00       0.00       4.07      53.21      17.99      71.20        1.62  1116.73   0.766
  sub64                     92.91       0.00       0.00       1.95      60.59       8.91      69.51        1.67  1099.33   0.748
  sub65                     92.91       0.00       0.00       1.79      65.41       8.14      73.54        2.02  1292.09   0.792
  sub66                     92.91       0.00       0.00       4.81      51.48      16.55      68.03        3.17  1767.71   0.732
  sub67                     92.91       0.00       0.00       0.96      67.89       5.03      72.93        1.36   990.41   0.785
  sub68                     92.91       0.00       0.00       1.69      59.97       8.22      68.19        1.88  1311.97   0.734
  sub69                     92.91       0.00       0.00       1.58      62.50       9.47      71.97        2.66  1669.18   0.775
  sub7                      92.91       0.00       0.00       1.05      64.53       5.42      69.96        0.24   169.08   0.753
  sub70                     92.91       0.00       0.00       5.40      50.09      20.47      70.56        2.04  1031.48   0.759
  sub71                     92.91       0.00       0.00       0.90      60.17       4.41      64.59        1.69  1104.36   0.695
  sub72                     92.91       0.00       0.00       0.86      65.01       4.11      69.13        0.95   578.79   0.744
  sub8                      92.91       0.00       0.00       1.03      62.71       5.26      67.98        0.43   306.59   0.732
  sub9                      92.91       0.00       0.00       1.00      60.80       5.10      65.90        0.32   223.49   0.709
  

  ***********************
  LID Performance Summary
  ***********************

  --------------------------------------------------------------------------------------------------------------------
                                         Total      Evap     Infil   Surface    Drain    Initial     Final  Continuity
                                        Inflow      Loss      Loss   Outflow   Outflow   Storage   Storage       Error
  Subcatchment      LID Control             mm        mm        mm        mm        mm        mm        mm           %
  --------------------------------------------------------------------------------------------------------------------
  sub1              GreenRoof            92.91      0.00      0.00      0.00      0.00      7.05    100.01       -0.05
  sub10             GreenRoof            92.91      0.00      0.00      0.00      0.00      7.05    100.01       -0.05
  sub11             GreenRoof            92.91      0.00      0.00      0.00      0.00      7.05    100.01       -0.05
  sub12             GreenRoof            92.91      0.00      0.00      0.00      0.00      7.05    100.01       -0.05
  sub14             GreenRoof            92.91      0.00      0.00      0.00      0.00      7.05    100.01       -0.05
  sub15             GreenRoof            92.91      0.00      0.00      0.00      0.00      7.05    100.01       -0.05
  sub16             GreenRoof            92.91      0.00      0.00      0.00      0.00      7.05    100.01       -0.05
  sub17             GreenRoof            92.91      0.00      0.00      0.00      0.00      7.05    100.01       -0.05
  sub2              GreenRoof            92.91      0.00      0.00      0.00      0.00      7.05    100.01       -0.05
  sub22             GreenRoof            92.91      0.00      0.00      0.00      0.00      7.05    100.01       -0.05
  sub23             GreenRoof            92.91      0.00      0.00      0.00      0.00      7.05    100.01       -0.05
  sub3              GreenRoof            92.91      0.00      0.00      0.00      0.00      7.05    100.01       -0.05
  sub4              GreenRoof            92.91      0.00      0.00      0.00      0.00      7.05    100.01       -0.05
  sub5              GreenRoof            92.91      0.00      0.00      0.00      0.00      7.05    100.01       -0.05
  sub60             GreenRoof            92.91      0.00      0.00      0.00      0.00      7.05    100.01       -0.05
  sub61             GreenRoof            92.91      0.00      0.00      0.00      0.00      7.05    100.01       -0.05
  sub62             GreenRoof            92.91      0.00      0.00      0.00      0.00      7.05    100.01       -0.05
  sub63             GreenRoof            92.91      0.00      0.00      0.00      0.00      7.05    100.01       -0.05
  sub64             GreenRoof            92.91      0.00      0.00      0.00      0.00      7.05    100.01       -0.05
  sub65             GreenRoof            92.91      0.00      0.00      0.00      0.00      7.05    100.01       -0.05
  sub66             GreenRoof            92.91      0.00      0.00      0.00      0.00      7.05    100.01       -0.05
  sub67             GreenRoof            92.91      0.00      0.00      0.00      0.00      7.05    100.01       -0.05
  sub68             GreenRoof            92.91      0.00      0.00      0.00      0.00      7.05    100.01       -0.05
  sub69             GreenRoof            92.91      0.00      0.00      0.00      0.00      7.05    100.01       -0.05
  sub7              GreenRoof            92.91      0.00      0.00      0.00      0.00      7.05    100.01       -0.05
  sub70             GreenRoof            92.91      0.00      0.00      0.00      0.00      7.05    100.01       -0.05
  sub71             GreenRoof            92.91      0.00      0.00      0.00      0.00      7.05    100.01       -0.05
  sub72             GreenRoof            92.91      0.00      0.00      0.00      0.00      7.05    100.01       -0.05
  sub8              GreenRoof            92.91      0.00      0.00      0.00      0.00      7.05    100.01       -0.05
  sub9              GreenRoof            92.91      0.00      0.00      0.00      0.00      7.05    100.01       -0.05
  
  ******************
  Node Depth Summary
  ******************
  
  ---------------------------------------------------------------------------------
                                 Average  Maximum  Maximum  Time of Max    Reported
                                   Depth    Depth      HGL   Occurrence   Max Depth
  Node                 Type       Meters   Meters   Meters  days hr:min      Meters
  ---------------------------------------------------------------------------------
  HS02004478           JUNCTION     0.30     1.59    10.82     0  02:27        1.58
  HS02004479           JUNCTION     0.38     1.71    10.92     0  02:36        1.67
  HS02004480           JUNCTION     0.35     1.69    10.93     0  02:36        1.63
  HS02004770           JUNCTION     0.34     1.42    11.25     0  02:07        1.42
  HS02004777           JUNCTION     0.36     1.48    11.28     0  02:07        1.46
  HS02004785           JUNCTION     0.25     1.49    11.39     0  02:07        1.37
  HS02004788           JUNCTION     0.22     1.38    11.28     0  02:23        1.37
  HS02004792           JUNCTION     0.29     1.60    11.12     0  02:10        1.60
  HS02004799           JUNCTION     0.42     1.76    10.97     0  02:11        1.76
  HS02004802           JUNCTION     0.40     1.80    10.93     0  02:26        1.80
  HS02004807           JUNCTION     0.38     1.92    11.09     0  02:20        1.92
  HS02004817           JUNCTION     0.69     2.44    11.29     0  02:11        2.44
  HS02004824           JUNCTION     0.25     2.01    11.41     0  02:11        2.01
  HS02004830           JUNCTION     0.24     2.03    11.50     0  02:11        2.03
  HS02004837           JUNCTION     0.21     2.04    11.62     0  02:11        2.04
  HS02004842           JUNCTION     0.50     2.22    11.49     0  02:11        2.22
  HS02004848           JUNCTION     0.19     2.07    11.67     0  02:10        2.07
  HS02004852           JUNCTION     0.20     2.12    11.63     0  02:11        2.12
  HS02004856           JUNCTION     0.26     2.07    11.50     0  02:11        2.07
  HS02004862           JUNCTION     0.21     2.00    11.38     0  02:11        2.00
  HS02004870           JUNCTION     0.21     2.10    11.39     0  02:11        2.10
  HS02004876           JUNCTION     0.26     2.24    11.27     0  02:11        2.24
  HS02004881           JUNCTION     0.19     1.88    10.91     0  02:23        1.88
  HS02004901           JUNCTION     0.35     1.42    11.24     0  02:07        1.42
  WS02001211           JUNCTION     0.65     0.83     5.67     0  02:27        0.83
  WS02001212           JUNCTION     0.39     0.59     5.65     0  02:27        0.59
  WS02001213           JUNCTION     0.62     0.89     5.65     0  02:26        0.89
  WS02003059           JUNCTION     0.68     0.96     5.64     0  02:26        0.95
  WS02003060           JUNCTION     0.41     0.70     5.64     0  02:26        0.70
  WS02003066           JUNCTION     0.25     0.47     6.02     0  02:25        0.47
  WS02003067           JUNCTION     0.58     0.90     6.22     0  02:23        0.90
  WS02003069           JUNCTION     0.46     0.80     5.38     0  02:26        0.80
  WS02003072           JUNCTION     0.52     0.83     5.20     0  02:26        0.83
  WS02003073           JUNCTION     0.31     0.53     4.59     0  02:27        0.53
  WS02004138           JUNCTION     0.13     0.14     7.39     0  00:29        0.14
  WS02004139           JUNCTION     0.59     0.76     5.67     0  02:27        0.76
  WS02004401           JUNCTION     0.85     2.05     8.05     0  02:25        2.05
  WS02004402           JUNCTION     0.86     1.99     7.95     0  02:25        1.98
  WS02004403           JUNCTION     0.86     1.90     7.83     0  02:25        1.89
  WS02004404           JUNCTION     0.92     1.90     7.75     0  02:25        1.89
  WS02004405           JUNCTION     0.91     1.84     7.69     0  02:25        1.83
  WS02004406           JUNCTION     0.89     1.72     7.55     0  02:25        1.70
  WS02004407           JUNCTION     0.31     1.05     7.36     0  02:25        1.04
  WS02004409           JUNCTION     0.60     1.47     7.24     0  02:25        1.45
  WS02004410           JUNCTION     0.60     1.36     7.08     0  02:25        1.35
  WS02004411           JUNCTION     0.60     1.26     6.94     0  02:25        1.25
  WS02004412           JUNCTION     0.59     1.14     6.78     0  02:25        1.14
  WS02004413           JUNCTION     0.72     1.17     6.64     0  02:25        1.16
  WS02006109           JUNCTION     1.11     2.64     9.26     0  02:09        2.64
  WS02006110           JUNCTION     1.03     2.46     9.05     0  02:25        2.46
  WS02006111           JUNCTION     0.51     1.93     8.63     0  02:25        1.93
  WS02006112           JUNCTION     1.09     2.61     8.50     0  02:25        2.61
  WS02006113           JUNCTION     0.59     1.95     8.85     0  02:24        1.95
  WS02006115           JUNCTION     0.79     2.18     8.32     0  02:25        2.18
  WS02006116           JUNCTION     0.85     2.16     8.20     0  02:25        2.16
  WS02006228           JUNCTION     1.19     3.03     9.68     0  02:11        3.03
  WS02006229           JUNCTION     1.21     3.25     9.94     0  02:36        3.22
  WS02006230           JUNCTION     1.12     2.65     9.39     0  02:01        2.65
  WS02006231           JUNCTION     0.82     2.21     9.33     0  02:17        2.21
  WS02006232           JUNCTION     0.91     2.18     9.22     0  02:01        2.18
  WS02006234           JUNCTION     0.79     1.96     9.12     0  01:58        1.96
  WS02006235           JUNCTION     0.80     1.95     9.11     0  02:36        1.95
  WS02006238           JUNCTION     0.82     1.96     9.10     0  02:36        1.94
  WS02006239           JUNCTION     0.76     2.03     9.24     0  02:36        2.03
  WS02006240           JUNCTION     0.71     1.97     9.26     0  02:36        1.97
  WS02006242           JUNCTION     0.73     1.55     8.82     0  01:53        1.55
  WS02006243           JUNCTION     0.62     1.48     8.90     0  02:36        1.48
  WS02006245           JUNCTION     0.60     1.36     8.85     0  02:36        1.36
  WS02006247           JUNCTION     0.60     1.24     8.74     0  03:09        1.23
  WS02006248           JUNCTION     0.54     1.10     8.69     0  01:45        1.10
  WS02006249           JUNCTION     0.56     1.09     8.69     0  01:44        1.09
  WS02006251           JUNCTION     0.70     2.18     9.85     0  02:11        2.17
  WS02006252           JUNCTION     0.46     1.50     9.74     0  00:00        1.50
  WS02006253           JUNCTION     0.81     3.16    10.81     0  02:24        3.16
  WS02006256           JUNCTION     1.18     2.35     9.28     0  00:00        2.35
  WS02006280           JUNCTION     0.39     1.78    10.05     0  02:36        1.74
  WS02006284           JUNCTION     0.64     1.98    10.38     0  02:36        1.94
  WS02006287           JUNCTION     0.38     1.75    10.70     0  02:36        1.73
  WSF200               JUNCTION     0.25     0.54     5.77     0  02:25        0.54
  YS02001580           JUNCTION     0.11     1.04     9.58     0  02:06        0.77
  YS02001583           JUNCTION     0.14     1.01     9.51     0  02:06        0.82
  YS02001586           JUNCTION     0.24     1.13     9.30     0  02:06        1.13
  YS02001590           JUNCTION     0.35     1.40     9.26     0  02:36        1.40
  YS02001593           JUNCTION     0.27     1.31     9.17     0  02:06        1.29
  YS02001596           JUNCTION     0.37     1.67     9.09     0  02:06        1.66
  YS02001600           JUNCTION     0.46     1.87     9.00     0  02:06        1.86
  YS02001601           JUNCTION     0.66     2.06     8.90     0  02:05        2.06
  YS02001602           JUNCTION     0.56     1.87     8.77     0  02:09        1.87
  YS02001605           JUNCTION     0.52     1.78     8.68     0  02:36        1.77
  YS02001607           JUNCTION     0.51     1.68     8.53     0  02:36        1.68
  YS02001610           JUNCTION     0.55     1.68     8.48     0  02:10        1.68
  YS02001613           JUNCTION     0.51     1.69     8.53     0  02:36        1.67
  YS02001616           JUNCTION     0.44     1.61     8.52     0  02:17        1.61
  YS02001619           JUNCTION     0.42     1.61     8.54     0  02:17        1.61
  YS02001622           JUNCTION     0.40     1.62     8.52     0  02:36        1.62
  YS02001625           JUNCTION     0.66     1.78     8.38     0  02:10        1.78
  YS02001629           JUNCTION     0.55     1.85     8.40     0  02:14        1.85
  YS02001633           JUNCTION     0.62     2.03     8.48     0  02:36        2.02
  YS02001641           JUNCTION     0.60     2.00     8.44     0  02:36        1.96
  YS02001644           JUNCTION     0.60     1.92     8.35     0  02:14        1.92
  YS02001647           JUNCTION     0.38     1.77     8.38     0  02:23        1.77
  YS02001649           JUNCTION     0.44     2.01     8.40     0  02:24        2.01
  YS02001652           JUNCTION     0.32     1.87     8.47     0  02:24        1.87
  YS02001655           JUNCTION     0.25     1.68     8.53     0  02:24        1.68
  YS02001658           JUNCTION     0.18     1.45     8.60     0  02:23        1.45
  YS02001661           JUNCTION     0.19     1.26     8.66     0  02:24        1.26
  YS02001664           JUNCTION     0.07     0.75     8.68     0  02:24        0.73
  YS02001745           JUNCTION     0.10     0.93     8.45     0  02:24        0.93
  YS02001748           JUNCTION     0.17     1.36     8.43     0  02:24        1.36
  YS02001751           JUNCTION     0.22     1.53     8.41     0  02:23        1.53
  YS02001754           JUNCTION     0.29     1.78     8.38     0  02:24        1.78
  YS02001757           JUNCTION     0.47     2.10     8.36     0  02:24        2.10
  YS02001759           JUNCTION     0.41     2.09     8.45     0  02:23        2.08
  YS02001762           JUNCTION     0.40     2.05     8.45     0  02:24        2.05
  YS02001765           JUNCTION     0.37     2.01     8.46     0  02:24        2.01
  YS02001767           JUNCTION     0.37     1.96     8.45     0  02:24        1.96
  YS02001770           JUNCTION     0.38     1.95     8.44     0  02:23        1.95
  YS02001774           JUNCTION     0.45     2.00     8.42     0  02:24        2.00
  YS02001779           JUNCTION     0.27     1.68     8.37     0  02:17        1.68
  YS02001783           JUNCTION     0.28     1.25     7.39     0  02:24        1.25
  YS02001784           JUNCTION     0.29     1.34     7.41     0  02:36        1.34
  YS02001786           JUNCTION     0.24     0.88     6.91     0  02:24        0.87
  YS02001788           JUNCTION     0.17     0.62     6.60     0  02:24        0.62
  YS02001790           JUNCTION     0.21     0.73     6.37     0  02:24        0.72
  YS02001791           JUNCTION     0.13     0.44     5.91     0  02:24        0.44
  YS02001793           JUNCTION     0.07     0.29     5.12     0  02:16        0.28
  YS02001882           JUNCTION     0.34     1.74     8.46     0  02:36        1.67
  YS02001884           JUNCTION     0.43     1.82     8.43     0  02:36        1.79
  YS02001887           JUNCTION     0.51     1.87     8.41     0  02:17        1.87
  YS02001890           JUNCTION     0.54     1.81     8.32     0  02:14        1.81
  YS02001895           JUNCTION     0.31     1.58     8.32     0  02:36        1.56
  YS02001898           JUNCTION     0.32     1.59     8.32     0  02:36        1.57
  YS02001901           JUNCTION     0.43     1.70     8.31     0  02:36        1.68
  YS02001904           JUNCTION     0.41     1.65     8.28     0  02:36        1.64
  YS02001907           JUNCTION     0.73     1.96     8.25     0  02:14        1.96
  YS02001910           JUNCTION     0.53     1.94     8.45     0  02:25        1.94
  YS02001915           JUNCTION     0.35     1.89     8.61     0  02:25        1.88
  YS02001918           JUNCTION     0.19     1.72     8.78     0  02:15        1.57
  YS02001920           JUNCTION     0.27     1.85     8.86     0  02:15        1.64
  YS02001923           JUNCTION     0.14     1.66     8.92     0  02:15        1.41
  YS02001926           JUNCTION     0.18     1.52     8.97     0  02:15        1.25
  YS02001929           JUNCTION     0.10     1.48     9.18     0  02:15        1.01
  YS02006553           JUNCTION     0.73     1.98     8.27     0  02:23        1.98
  YS02006556           JUNCTION     0.70     1.97     8.28     0  02:23        1.97
  YS02006558           JUNCTION     0.75     2.02     8.29     0  02:24        2.02
  YS02006561           JUNCTION     0.17     0.92     7.58     0  02:14        0.91
  YS02163301           JUNCTION     0.57     1.93     8.44     0  02:36        1.91
  YS02163601           JUNCTION     0.66     2.08     8.48     0  02:36        2.05
  YS02164001           JUNCTION     0.59     2.03     8.48     0  02:36        1.95
  YSB1154              JUNCTION     0.52     2.02    11.08     0  02:25        2.02
  YSB1171              JUNCTION     0.66     1.95    10.85     0  02:11        1.95
  YSB1174              JUNCTION     0.47     1.84    10.95     0  02:23        1.83
  YSB6556              JUNCTION     0.42     1.79    10.96     0  02:23        1.78
  CC-1                 OUTFALL      0.00     0.00     0.00     0  00:00        0.00
  CC-2                 OUTFALL      0.00     0.00     0.00     0  00:00        0.00
  JK-1                 OUTFALL      0.00     0.00     0.00     0  00:00        0.00
  JK-2                 OUTFALL      0.00     0.00     0.00     0  00:00        0.00
  WSC                  OUTFALL      0.31     0.53     1.20     0  02:27        0.53
  CC-storage           STORAGE      0.90     1.88     7.38     0  02:44        1.88
  JK-storage           STORAGE      2.37     4.23     5.03     0  02:15        4.19
  XR-storage           STORAGE      7.86     9.26     7.26     0  08:00        9.26
  
  
  *******************
  Node Inflow Summary
  *******************
  
  -------------------------------------------------------------------------------------------------
                                  Maximum  Maximum                  Lateral       Total        Flow
                                  Lateral    Total  Time of Max      Inflow      Inflow     Balance
                                   Inflow   Inflow   Occurrence      Volume      Volume       Error
  Node                 Type           LPS      LPS  days hr:min    10^6 ltr    10^6 ltr     Percent
  -------------------------------------------------------------------------------------------------
  HS02004478           JUNCTION      0.00  2303.55     0  02:21           0          10      -0.002
  HS02004479           JUNCTION      0.00   378.15     0  02:14           0       0.947       0.115
  HS02004480           JUNCTION      0.00  2040.02     0  02:11           0        7.43       0.037
  HS02004770           JUNCTION   2413.15  2413.15     0  02:25        3.67        3.91       0.077
  HS02004777           JUNCTION      0.03   670.80     0  02:08    0.000864        2.08       0.251
  HS02004785           JUNCTION      0.15   682.04     0  02:06     0.00432        2.07       0.021
  HS02004788           JUNCTION    825.48   912.71     0  02:25        1.31        3.38       0.012
  HS02004792           JUNCTION   3168.12  4080.79     0  02:25        5.13         8.5       0.005
  HS02004799           JUNCTION    436.99  1732.53     0  02:09       0.621         6.8       0.045
  HS02004802           JUNCTION      0.00  1233.64     0  02:28           0         2.8       0.152
  HS02004807           JUNCTION    562.98  1759.53     0  02:25       0.793        3.06       0.143
  HS02004817           JUNCTION      0.60  1197.02     0  02:26      0.0173        2.31       0.719
  HS02004824           JUNCTION    918.71  1505.82     0  02:25        1.65         2.6       0.024
  HS02004830           JUNCTION      0.15   593.06     0  02:24     0.00432        1.16       0.098
  HS02004837           JUNCTION    559.09   688.67     0  02:10       0.993        1.48       0.043
  HS02004842           JUNCTION      0.00   695.84     0  02:10           0       0.888       1.472
  HS02004848           JUNCTION    892.55   946.15     0  02:10        1.72         2.3      -0.003
  HS02004852           JUNCTION      0.00   924.15     0  02:10           0           2      -0.011
  HS02004856           JUNCTION    223.49   960.48     0  02:10       0.317        2.31       0.088
  HS02004862           JUNCTION    408.94  1158.43     0  02:25       0.732        3.04      -0.003
  HS02004870           JUNCTION    306.59  1252.67     0  02:29       0.434        3.41       0.014
  HS02004876           JUNCTION    356.32  1522.44     0  02:28       0.536        3.95       0.016
  HS02004881           JUNCTION    169.08  1669.13     0  02:25       0.236        4.18       0.011
  HS02004901           JUNCTION    544.18   809.94     0  02:25       0.778        1.25       0.144
  WS02001211           JUNCTION      7.35   204.53     0  03:07       0.212        5.44       0.612
  WS02001212           JUNCTION      0.00   210.74     0  03:07           0        5.41       0.290
  WS02001213           JUNCTION      0.00   215.28     0  03:06           0        5.39       0.332
  WS02003059           JUNCTION      0.00   220.32     0  03:06           0        5.38       0.595
  WS02003060           JUNCTION     16.53  1565.61     0  02:25       0.476        14.8       0.098
  WS02003066           JUNCTION      0.00  1369.33     0  02:25           0           9       0.016
  WS02003067           JUNCTION      0.00  1371.51     0  02:25           0           9       0.048
  WS02003069           JUNCTION      0.32  1563.68     0  02:26     0.00922        14.8       0.103
  WS02003072           JUNCTION      0.00  1562.56     0  02:26           0        14.8       0.140
  WS02003073           JUNCTION      1.82  1564.82     0  02:26      0.0524        14.8       0.146
  WS02004138           JUNCTION      0.00   380.00     0  00:00           0        5.25       0.052
  WS02004139           JUNCTION      0.32   190.95     0  00:29     0.00924        5.26       0.509
  WS02004401           JUNCTION      0.00  1369.75     0  02:25           0        9.11       0.113
  WS02004402           JUNCTION      0.00  1370.72     0  02:25           0         9.1       0.115
  WS02004403           JUNCTION      0.00  1369.73     0  02:25           0        9.09       0.113
  WS02004404           JUNCTION      0.16  1370.91     0  02:25     0.00467        9.08       0.095
  WS02004405           JUNCTION      0.04  1370.72     0  02:25      0.0011        9.07       0.138
  WS02004406           JUNCTION      0.00  1370.82     0  02:25           0        9.06       0.231
  WS02004407           JUNCTION      0.00  1370.83     0  02:25           0        9.04       0.016
  WS02004409           JUNCTION      0.00  1370.03     0  02:25           0        9.04       0.035
  WS02004410           JUNCTION      0.00  1370.14     0  02:25           0        9.04       0.055
  WS02004411           JUNCTION      0.00  1370.44     0  02:25           0        9.03       0.067
  WS02004412           JUNCTION      0.00  1370.63     0  02:25           0        9.02       0.086
  WS02004413           JUNCTION      0.00  1371.30     0  02:25           0        9.02       0.155
  WS02006109           JUNCTION      1.23  1289.13     0  02:21      0.0354        8.86       0.113
  WS02006110           JUNCTION      0.00  1122.83     0  02:41           0        8.45       0.087
  WS02006111           JUNCTION      0.00  1123.17     0  02:42           0        8.44       0.004
  WS02006112           JUNCTION    476.81  1368.73     0  02:25       0.694        9.14       0.217
  WS02006113           JUNCTION      0.00  1123.18     0  02:42           0        8.45       0.027
  WS02006115           JUNCTION      0.00  1368.68     0  02:24           0        9.12       0.072
  WS02006116           JUNCTION      0.00  1368.85     0  02:25           0        9.11       0.051
  WS02006228           JUNCTION      0.00  1288.35     0  02:21           0        8.83       0.053
  WS02006229           JUNCTION      0.00  2305.49     0  02:20           0        11.8       0.068
  WS02006230           JUNCTION     10.28  1025.73     0  02:20       0.296        4.75       0.197
  WS02006231           JUNCTION      0.00   533.62     0  03:42           0        3.25      -0.173
  WS02006232           JUNCTION      0.00   531.48     0  03:42           0        3.22       0.131
  WS02006234           JUNCTION      0.00   527.13     0  03:42           0         3.2      -0.108
  WS02006235           JUNCTION      0.00   521.36     0  03:42           0        3.25       0.118
  WS02006238           JUNCTION      0.00   422.63     0  02:36           0        3.03      -0.107
  WS02006239           JUNCTION      0.00   416.62     0  03:42           0        3.02      -0.115
  WS02006240           JUNCTION      0.00   416.65     0  03:42           0        3.01      -0.018
  WS02006242           JUNCTION      0.00   416.71     0  03:42           0        3.01      -0.004
  WS02006243           JUNCTION      0.00   416.66     0  03:42           0         2.5      -0.056
  WS02006245           JUNCTION      0.00   416.48     0  03:42           0        2.51       0.254
  WS02006247           JUNCTION      0.00   416.61     0  03:42           0        2.51       0.003
  WS02006248           JUNCTION      0.00   416.84     0  03:42           0        2.79       0.021
  WS02006249           JUNCTION      0.00  1382.97     0  02:25           0        6.39       0.066
  WS02006251           JUNCTION      0.08  1723.70     0  02:25     0.00222        6.62      -0.014
  WS02006252           JUNCTION      0.00   741.77     0  02:25           0        3.17      -0.014
  WS02006253           JUNCTION     54.13  1723.78     0  02:25      0.0734        4.27      -0.006
  WS02006256           JUNCTION      0.00   300.00     0  00:00           0        1.76      -0.102
  WS02006280           JUNCTION      0.00  2303.86     0  02:21           0          10       0.005
  WS02006284           JUNCTION      0.10  2303.93     0  02:21     0.00275          10       0.003
  WS02006287           JUNCTION      0.00  2304.54     0  02:21           0          10       0.010
  WSF200               JUNCTION      0.00  1369.51     0  02:25           0           9       0.007
  YS02001580           JUNCTION      0.00    71.41     0  02:06           0     0.00406       2.177
  YS02001583           JUNCTION      0.00   105.59     0  02:05           0      0.0156      -2.826
  YS02001586           JUNCTION   1031.48  1031.57     0  02:26        2.04        2.05       0.046
  YS02001590           JUNCTION      0.00   322.00     0  02:36           0        1.44      -0.019
  YS02001593           JUNCTION      0.00   319.62     0  02:36           0        1.44       0.001
  YS02001596           JUNCTION      0.00   317.98     0  02:34           0        1.44      -0.010
  YS02001600           JUNCTION      0.00   318.17     0  02:36           0        1.44       0.021
  YS02001601           JUNCTION   1669.18  1986.70     0  02:25        2.66        4.11       0.020
  YS02001602           JUNCTION      0.00   489.84     0  02:05           0        2.41       0.015
  YS02001605           JUNCTION      0.00   489.92     0  02:05           0        2.28       0.020
  YS02001607           JUNCTION      0.00   489.47     0  02:05           0        2.28       0.084
  YS02001610           JUNCTION      0.00   950.41     0  02:27           0        2.67       0.088
  YS02001613           JUNCTION      0.00   614.29     0  02:27           0        2.12       0.088
  YS02001616           JUNCTION      0.00   614.22     0  02:27           0        2.12       0.008
  YS02001619           JUNCTION   1767.71  1767.71     0  02:26        3.17         4.9       0.005
  YS02001622           JUNCTION      0.00  1053.69     0  02:26           0        4.48       0.002
  YS02001625           JUNCTION      0.00  1503.60     0  02:27           0        4.82       0.214
  YS02001629           JUNCTION      0.00   896.75     0  02:09           0        3.53       0.006
  YS02001633           JUNCTION   1292.29  1292.29     0  02:25        2.03        5.18       0.065
  YS02001641           JUNCTION      0.00  1234.35     0  02:10           0        4.79       0.060
  YS02001644           JUNCTION   1099.37  1923.82     0  02:25        1.67        6.48       0.054
  YS02001647           JUNCTION      0.00  1543.60     0  02:10           0        5.62       0.007
  YS02001649           JUNCTION      0.00  1757.27     0  02:11           0        7.22       0.005
  YS02001652           JUNCTION      0.00  1128.07     0  02:25           0        1.62      -0.074
  YS02001655           JUNCTION      0.15  1127.68     0  02:25     0.00443        1.62      -0.008
  YS02001658           JUNCTION      0.00  1128.17     0  02:25           0        1.62      -0.037
  YS02001661           JUNCTION      0.00  1126.43     0  02:25           0        1.62       0.022
  YS02001664           JUNCTION   1116.73  1116.73     0  02:25        1.62        1.62      -0.009
  YS02001745           JUNCTION    650.89   650.89     0  02:25       0.911       0.911       0.120
  YS02001748           JUNCTION      0.04   652.08     0  02:25      0.0013       0.913      -0.162
  YS02001751           JUNCTION      0.01   651.84     0  02:25    0.000317       0.918       0.058
  YS02001754           JUNCTION      0.26   652.60     0  02:25     0.00749       0.928      -0.130
  YS02001757           JUNCTION      0.00  2933.61     0  02:23           0          11       0.006
  YS02001759           JUNCTION    954.65  1299.96     0  02:25        1.34        2.92      -0.005
  YS02001762           JUNCTION      0.00   668.59     0  02:18           0        1.58       0.008
  YS02001765           JUNCTION      0.00   668.14     0  02:18           0        1.58       0.018
  YS02001767           JUNCTION      0.54   667.89     0  02:18      0.0154        1.58       0.021
  YS02001770           JUNCTION   1323.51  1323.51     0  02:25        1.95           2      -0.002
  YS02001774           JUNCTION      0.00   847.47     0  02:26           0       0.439       0.268
  YS02001779           JUNCTION      0.01   847.68     0  02:26    0.000144       0.392       0.015
  YS02001783           JUNCTION      0.00  1167.31     0  02:24           0        4.27       0.005
  YS02001784           JUNCTION      1.06  1168.79     0  02:23      0.0305         4.3       0.012
  YS02001786           JUNCTION      0.06  1168.56     0  02:23     0.00162         4.3       0.015
  YS02001788           JUNCTION      0.07  1169.47     0  02:24     0.00204         4.3       0.007
  YS02001790           JUNCTION      0.15  1176.82     0  02:23     0.00446         4.3       0.027
  YS02001791           JUNCTION      0.00  1296.07     0  02:24           0         4.3      -0.033
  YS02001793           JUNCTION      0.00  1257.69     0  02:21           0         4.3       0.004
  YS02001882           JUNCTION      0.00    29.54     0  02:11           0      0.0131       5.584
  YS02001884           JUNCTION      0.00    34.88     0  02:10           0       0.049       5.216
  YS02001887           JUNCTION    990.86   991.88     0  02:25        1.37         1.4       0.320
  YS02001890           JUNCTION      0.00   991.18     0  02:25           0        1.36       0.378
  YS02001895           JUNCTION      0.00   517.98     0  02:25           0         1.2       0.145
  YS02001898           JUNCTION      0.00   518.40     0  02:25           0         1.2       0.026
  YS02001901           JUNCTION      0.00   518.25     0  02:26           0         1.2       0.267
  YS02001904           JUNCTION      0.00   517.81     0  02:25           0        1.21       0.239
  YS02001907           JUNCTION      0.00  2346.11     0  02:25           0        3.94       0.468
  YS02001910           JUNCTION      0.00  1687.35     0  02:25           0        2.72       0.265
  YS02001915           JUNCTION   1104.38  1687.14     0  02:25        1.69        2.74       0.063
  YS02001918           JUNCTION      0.00   592.89     0  02:25           0        1.07       0.025
  YS02001920           JUNCTION      2.87   593.21     0  02:25      0.0827        1.06       0.095
  YS02001923           JUNCTION      0.04   590.68     0  02:25     0.00109       0.965      -0.028
  YS02001926           JUNCTION      0.05   589.95     0  02:25      0.0015       0.955       0.013
  YS02001929           JUNCTION    578.79   578.79     0  02:25        0.95        0.95      -0.016
  YS02006553           JUNCTION      0.00   798.80     0  02:37           0        2.45       0.490
  YS02006556           JUNCTION      0.00   798.80     0  02:37           0        2.46       0.334
  YS02006558           JUNCTION   1312.85  1312.85     0  02:25         1.9        4.32       0.080
  YS02006561           JUNCTION      0.00  1167.55     0  02:24           0        4.27       0.002
  YS02163301           JUNCTION      0.00   895.14     0  02:09           0        3.53       0.043
  YS02163601           JUNCTION      0.11  1236.80     0  02:09     0.00317        4.79       0.100
  YS02164001           JUNCTION      0.00  1236.96     0  02:09           0        4.79       0.054
  YSB1154              JUNCTION    572.07   572.07     0  02:25       0.851       0.852       0.185
  YSB1171              JUNCTION      0.00  1278.84     0  02:25           0        1.67       0.408
  YSB1174              JUNCTION    468.53   468.53     0  02:25       0.636       0.637       0.218
  YSB6556              JUNCTION      0.00   571.93     0  02:25           0       0.852       0.167
  CC-1                 OUTFALL       0.00   683.00     0  00:00           0        4.51       0.000
  CC-2                 OUTFALL       0.00   683.00     0  00:00           0        4.17       0.000
  JK-1                 OUTFALL       0.00  1000.00     0  00:00           0        2.49       0.000
  JK-2                 OUTFALL       0.00  1000.00     0  00:00           0      0.0484       0.000
  WSC                  OUTFALL       0.00  1566.03     0  02:27           0        14.8       0.000
  CC-storage           STORAGE       0.00  2933.38     0  02:24           0        13.3      -0.149
  JK-storage           STORAGE       0.00  1288.90     0  02:21           0        4.46       0.034
  XR-storage           STORAGE     200.00   200.00     0  00:00        5.76        6.36       0.001
  
  
  **********************
  Node Surcharge Summary
  **********************
  
  Surcharging occurs when water rises above the top of the highest conduit.
  ---------------------------------------------------------------------
                                               Max. Height   Min. Depth
                                   Hours       Above Crown    Below Rim
  Node                 Type      Surcharged         Meters       Meters
  ---------------------------------------------------------------------
  HS02004478           JUNCTION        0.63          0.667        0.273
  HS02004479           JUNCTION        0.78          0.913        0.137
  HS02004480           JUNCTION        0.82          0.979        0.121
  HS02004770           JUNCTION        0.71          0.720        0.000
  HS02004777           JUNCTION        0.72          0.780        0.000
  HS02004785           JUNCTION        0.66          0.790        0.000
  HS02004788           JUNCTION        0.65          0.680        0.040
  HS02004792           JUNCTION        0.79          0.900        0.000
  HS02004799           JUNCTION        0.95          1.060        0.000
  HS02004802           JUNCTION        0.84          1.095        0.115
  HS02004807           JUNCTION        0.80          1.220        0.000
  HS02004817           JUNCTION        1.42          1.740        0.000
  HS02004824           JUNCTION        0.65          1.310        0.000
  HS02004830           JUNCTION        0.62          1.330        0.000
  HS02004837           JUNCTION        0.57          1.340        0.000
  HS02004842           JUNCTION        0.72          1.520        0.000
  HS02004848           JUNCTION        0.54          1.370        0.000
  HS02004852           JUNCTION        0.56          1.420        0.000
  HS02004856           JUNCTION        0.55          1.300        0.000
  HS02004862           JUNCTION        0.59          1.300        0.000
  HS02004870           JUNCTION        0.61          1.400        0.000
  HS02004876           JUNCTION        0.68          1.539        0.021
  HS02004881           JUNCTION        0.66          1.184        0.266
  HS02004901           JUNCTION        0.72          0.720        0.000
  WS02004401           JUNCTION        1.65          1.052        0.608
  WS02004402           JUNCTION        1.69          0.986        0.754
  WS02004403           JUNCTION        1.70          0.895        1.135
  WS02004404           JUNCTION        1.99          0.896        1.884
  WS02004405           JUNCTION        1.85          0.843        1.957
  WS02004406           JUNCTION        1.81          0.718        1.732
  WS02004407           JUNCTION        0.06          0.049        2.291
  WS02004409           JUNCTION        1.27          0.472        1.888
  WS02004410           JUNCTION        1.22          0.362        2.178
  WS02004411           JUNCTION        1.11          0.257        2.273
  WS02004412           JUNCTION        0.99          0.142        2.168
  WS02004413           JUNCTION        1.41          0.167        2.033
  WS02006109           JUNCTION        2.40          1.820        0.000
  WS02006110           JUNCTION        2.26          1.552        0.298
  WS02006111           JUNCTION        1.40          1.118        0.752
  WS02006112           JUNCTION        2.31          1.615        0.065
  WS02006113           JUNCTION        1.40          1.154        0.776
  WS02006115           JUNCTION        1.55          1.168        1.082
  WS02006116           JUNCTION        1.56          1.100        1.190
  WS02006228           JUNCTION        2.40          2.200        0.000
  WS02006229           JUNCTION        1.16          1.070        0.000
  WS02006230           JUNCTION        2.06          1.570        0.000
  WS02006231           JUNCTION        2.20          1.496        0.034
  WS02006232           JUNCTION        2.29          1.480        0.000
  WS02006234           JUNCTION        2.24          1.240        0.000
  WS02006235           JUNCTION        2.24          1.240        0.050
  WS02006238           JUNCTION        2.24          1.236        0.194
  WS02006239           JUNCTION        2.20          1.290        0.000
  WS02006240           JUNCTION        2.16          1.262        0.128
  WS02006242           JUNCTION        2.17          0.820        0.000
  WS02006243           JUNCTION        2.10          0.770        0.000
  WS02006245           JUNCTION        2.10          0.653        0.197
  WS02006247           JUNCTION        2.09          0.531        0.229
  WS02006248           JUNCTION        2.08          0.380        0.000
  WS02006249           JUNCTION        2.08          0.390        0.000
  WS02006251           JUNCTION        2.03          1.154        0.026
  WS02006252           JUNCTION        2.19          1.100        0.000
  WS02006253           JUNCTION        2.04          2.124        0.356
  WS02006256           JUNCTION        4.60          2.050        0.000
  WS02006280           JUNCTION        0.97          0.733        0.047
  WS02006284           JUNCTION        0.86          0.699        0.101
  WS02006287           JUNCTION        0.73          0.748        0.142
  YS02001580           JUNCTION        0.72          0.437        0.013
  YS02001583           JUNCTION        0.73          0.375        0.125
  YS02001586           JUNCTION        0.85          0.510        0.000
  YS02001590           JUNCTION        0.93          0.750        0.000
  YS02001593           JUNCTION        0.93          0.685        0.155
  YS02001596           JUNCTION        1.06          0.942        0.128
  YS02001600           JUNCTION        1.23          1.190        0.000
  YS02001601           JUNCTION        1.58          1.440        0.000
  YS02001602           JUNCTION        1.47          1.270        0.000
  YS02001605           JUNCTION        1.41          1.180        0.000
  YS02001607           JUNCTION        0.93          0.680        0.000
  YS02001610           JUNCTION        0.96          0.680        0.000
  YS02001613           JUNCTION        0.93          0.691        0.009
  YS02001616           JUNCTION        0.88          0.610        0.000
  YS02001619           JUNCTION        0.86          0.610        0.000
  YS02001622           JUNCTION        0.86          0.620        0.000
  YS02001625           JUNCTION        1.05          0.780        0.000
  YS02001629           JUNCTION        0.80          0.470        0.000
  YS02001633           JUNCTION        1.09          1.010        0.050
  YS02001641           JUNCTION        1.03          1.005        0.095
  YS02001644           JUNCTION        1.00          0.920        0.000
  YS02001647           JUNCTION        0.80          0.770        0.130
  YS02001649           JUNCTION        0.92          1.010        0.040
  YS02001652           JUNCTION        0.74          0.839        0.291
  YS02001655           JUNCTION        0.58          0.682        0.518
  YS02001658           JUNCTION        0.33          0.454        0.846
  YS02001661           JUNCTION        0.10          0.187        1.203
  YS02001748           JUNCTION        0.26          0.275        0.915
  YS02001751           JUNCTION        0.45          0.533        0.667
  YS02001754           JUNCTION        0.67          0.726        0.424
  YS02001757           JUNCTION        0.99          1.099        0.111
  YS02001759           JUNCTION        0.91          1.086        0.124
  YS02001762           JUNCTION        0.88          1.051        0.099
  YS02001765           JUNCTION        0.85          1.006        0.094
  YS02001767           JUNCTION        0.81          0.958        0.072
  YS02001770           JUNCTION        0.79          0.920        0.000
  YS02001774           JUNCTION        0.87          1.002        0.048
  YS02001779           JUNCTION        0.65          0.680        0.000
  YS02001783           JUNCTION        0.57          0.448        1.152
  YS02001784           JUNCTION        0.54          0.540        0.950
  YS02001786           JUNCTION        0.43          0.078        1.352
  YS02001882           JUNCTION        0.51          0.740        0.090
  YS02001884           JUNCTION        0.52          0.756        0.114
  YS02001887           JUNCTION        0.56          0.822        0.128
  YS02001890           JUNCTION        0.57          0.760        0.000
  YS02001895           JUNCTION        0.50          0.577        0.173
  YS02001898           JUNCTION        0.49          0.560        0.180
  YS02001901           JUNCTION        0.54          0.697        0.173
  YS02001904           JUNCTION        0.53          0.650        0.200
  YS02001907           JUNCTION        0.84          0.950        0.000
  YS02001910           JUNCTION        0.60          0.939        0.161
  YS02001915           JUNCTION        0.51          0.889        0.111
  YS02001918           JUNCTION        0.42          0.719        0.091
  YS02001920           JUNCTION        0.43          0.853        0.287
  YS02001923           JUNCTION        0.13          0.450        0.370
  YS02001926           JUNCTION        0.16          0.522        0.378
  YS02001929           JUNCTION        0.02          0.483        0.297
  YS02006553           JUNCTION        0.87          0.982        0.208
  YS02006556           JUNCTION        0.71          0.929        0.421
  YS02006558           JUNCTION        0.69          0.921        0.479
  YS02006561           JUNCTION        0.37          0.115        1.035
  YS02163301           JUNCTION        1.07          0.928        0.102
  YS02163601           JUNCTION        1.13          1.080        0.000
  YS02164001           JUNCTION        1.03          1.026        0.074
  YSB1154              JUNCTION        1.09          1.322        0.078
  YSB1171              JUNCTION        1.10          1.100        0.000
  YSB1174              JUNCTION        0.99          1.143        0.107
  YSB6556              JUNCTION        0.91          1.088        0.012
  
  
  *********************
  Node Flooding Summary
  *********************
  
  Flooding refers to all water that overflows a node, whether it ponds or not.
  --------------------------------------------------------------------------
                                                             Total   Maximum
                                 Maximum   Time of Max       Flood    Ponded
                        Hours       Rate    Occurrence      Volume     Depth
  Node                 Flooded       LPS   days hr:min    10^6 ltr    Meters
  --------------------------------------------------------------------------
  HS02004770              0.52   2060.62      0  02:25       1.363     0.000
  HS02004777              0.01     23.16      0  02:07       0.000     0.000
  HS02004785              0.01     97.35      0  02:07       0.000     0.000
  HS02004792              0.49   2937.89      0  02:25       2.327     0.000
  HS02004799              0.25    273.42      0  02:25       0.127     0.000
  HS02004807              0.18    526.99      0  02:25       0.224     0.000
  HS02004817              0.01     22.30      0  02:11       0.000     0.000
  HS02004824              0.13    309.80      0  02:25       0.095     0.000
  HS02004830              0.01     26.94      0  02:11       0.000     0.000
  HS02004837              0.01     36.16      0  02:11       0.000     0.000
  HS02004842              0.13    328.80      0  02:25       0.085     0.000
  HS02004848              0.01    198.49      0  02:10       0.000     0.000
  HS02004852              0.01     23.12      0  02:11       0.000     0.000
  HS02004856              0.01     31.21      0  02:11       0.000     0.000
  HS02004862              0.11    321.32      0  02:25       0.066     0.000
  HS02004870              0.01     18.61      0  02:11       0.000     0.000
  HS02004901              0.60    809.85      0  02:25       1.006     0.000
  WS02006109              0.54    397.79      0  02:25       0.397     0.000
  WS02006228              0.01      8.88      0  02:36       0.000     0.000
  WS02006229              0.01     15.05      0  02:36       0.000     0.000
  WS02006230              0.87    573.32      0  02:20       1.235     0.000
  WS02006232              0.21      4.81      0  02:36       0.000     0.000
  WS02006234              0.96    129.21      0  02:48       0.420     0.000
  WS02006239              0.01      0.18      0  02:36       0.000     0.000
  WS02006242              1.11    137.72      0  02:05       0.506     0.000
  WS02006243              0.01      0.09      0  02:36       0.000     0.000
  WS02006248              1.37    339.16      0  02:48       1.511     0.000
  WS02006249              2.05   1322.00      0  02:25       4.836     0.000
  WS02006252              0.61    741.14      0  02:25       0.828     0.000
  WS02006256              1.62    293.19      0  00:00       1.075     0.000
  YS02001586              0.57    713.90      0  02:26       0.595     0.000
  YS02001590              0.01      0.36      0  02:36       0.000     0.000
  YS02001600              0.01      1.41      0  02:06       0.000     0.000
  YS02001601              0.77   1588.45      0  02:25       1.692     0.000
  YS02001602              0.67     62.08      0  02:40       0.138     0.000
  YS02001605              0.01      3.11      0  02:36       0.000     0.000
  YS02001607              0.01      0.46      0  02:36       0.000     0.000
  YS02001610              0.59    950.02      0  02:27       0.941     0.000
  YS02001616              0.02     11.12      0  02:36       0.000     0.000
  YS02001619              0.07    124.76      0  02:25       0.017     0.000
  YS02001622              0.01      0.48      0  02:36       0.000     0.000
  YS02001625              0.58   1503.52      0  02:27       1.664     0.000
  YS02001629              0.16    207.28      0  02:25       0.048     0.000
  YS02001644              0.29   1923.54      0  02:25       0.866     0.000
  YS02001770              0.05    142.49      0  02:25       0.013     0.000
  YS02001779              0.24    847.53      0  02:26       0.372     0.000
  YS02001890              0.22    474.55      0  02:25       0.156     0.000
  YS02001907              0.36   2345.07      0  02:25       1.500     0.000
  YS02163601              0.01     14.42      0  02:36       0.000     0.000
  YSB1171                 0.38   1278.18      0  02:25       0.890     0.000
  
  
  **********************
  Storage Volume Summary
  **********************
  
  --------------------------------------------------------------------------------------------------
                         Average     Avg  Evap Exfil       Maximum     Max    Time of Max    Maximum
                          Volume    Pcnt  Pcnt  Pcnt        Volume    Pcnt     Occurrence    Outflow
  Storage Unit           1000 m3    Full  Loss  Loss       1000 m3    Full    days hr:min        LPS
  --------------------------------------------------------------------------------------------------
  CC-storage               2.504      39     0     0         5.229      82       0  02:44    1783.53
  JK-storage               0.119      41     0     0         0.212      73       0  02:15    2300.00
  XR-storage               0.943      66     0     0         1.111      77       0  08:00     380.00
  
  
  ***********************
  Outfall Loading Summary
  ***********************
  
  -----------------------------------------------------------
                         Flow       Avg       Max       Total
                         Freq      Flow      Flow      Volume
  Outfall Node           Pcnt       LPS       LPS    10^6 ltr
  -----------------------------------------------------------
  CC-1                  37.07    683.00    683.00       4.515
  CC-2                  34.68    683.00    683.00       4.174
  JK-1                  12.78   1000.00   1000.00       2.491
  JK-2                   0.19   1000.00   1000.00       0.048
  WSC                   99.95    691.80   1566.03      14.804
  -----------------------------------------------------------
  System                36.93   4057.80   1566.03      26.032
  
  
  ********************
  Link Flow Summary
  ********************
  
  -----------------------------------------------------------------------------
                                 Maximum  Time of Max   Maximum    Max/    Max/
                                  |Flow|   Occurrence   |Veloc|    Full    Full
  Link                 Type          LPS  days hr:min     m/sec    Flow   Depth
  -----------------------------------------------------------------------------
  1                    CONDUIT   1566.03     0  02:27      3.73    0.55    0.53
  HS02004478WS02006287 CONDUIT   2304.54     0  02:21      2.56    0.65    1.00
  HS02004479HS02004480 CONDUIT    378.28     0  02:14      0.54    0.37    1.00
  HS02004480HS02004478 CONDUIT   2040.20     0  02:10      2.91    8.59    1.00
  HS02004770HS02004777 CONDUIT    670.77     0  02:08      0.96    1.23    1.00
  HS02004777HS02004785 CONDUIT    681.89     0  02:06      1.04    0.84    1.00
  HS02004785HS02004788 CONDUIT    668.12     0  02:08      1.36    5.04    1.00
  HS02004788HS02004792 CONDUIT    912.67     0  02:25      1.44    0.60    1.00
  HS02004792HS02004799 CONDUIT   1621.86     0  02:08      2.32    0.99    1.00
  HS02004799HS02004480 CONDUIT   1731.66     0  02:09      2.47    2.19    1.00
  HS02004802HS02004478 CONDUIT   1233.71     0  02:26      1.76    1.09    1.00
  HS02004807HS02004802 CONDUIT   1233.64     0  02:28      1.76    2.36    1.00
  HS02004817HS02004807 CONDUIT   1197.01     0  02:29      1.71    0.71    1.00
  HS02004817HS02004824 CONDUIT   1196.42     0  02:26      1.71    0.54    1.00
  HS02004824HS02004830 CONDUIT    593.05     0  02:25      0.85    0.78    1.00
  HS02004830HS02004837 CONDUIT    592.91     0  02:24      0.85    0.59    1.00
  HS02004837HS02004842 CONDUIT    695.84     0  02:10      0.99    0.42    1.00
  HS02004842HS02004848 CONDUIT    695.19     0  02:10      1.04    0.40    1.00
  HS02004848HS02004852 CONDUIT    924.15     0  02:10      1.50    1.04    1.00
  HS02004852HS02004856 CONDUIT    896.53     0  02:10      1.41    1.03    1.00
  HS02004856HS02004862 CONDUIT    908.60     0  02:10      1.61    0.91    1.00
  HS02004862HS02004870 CONDUIT   1073.13     0  02:29      1.73    1.16    1.00
  HS02004870HS02004876 CONDUIT   1252.18     0  02:28      1.79    0.83    1.00
  HS02004876HS02004881 CONDUIT   1521.80     0  02:28      2.19   16.19    1.00
  HS02004881HS02006253 CONDUIT   1669.65     0  02:25      2.74    0.33    1.00
  HS02004901HS02004770 CONDUIT    265.79     0  02:39      0.38    1.00    1.00
  WS02001211WS02001212 CONDUIT    210.74     0  03:07      0.54    0.16    0.71
  WS02001212WS02001213 CONDUIT    215.28     0  03:06      1.04    0.33    0.58
  WS02001213WS02003059 CONDUIT    220.32     0  03:06      0.47    0.36    0.91
  WS02003059WS02003060 CONDUIT    225.65     0  03:05      0.66    0.15    0.83
  WS02003060WS02003069 CONDUIT   1563.36     0  02:26      2.10    0.61    0.63
  WS02003066WSF200     CONDUIT   1369.51     0  02:25      3.28    0.23    0.40
  WS02003067WS02003066 CONDUIT   1369.33     0  02:25      2.06    0.44    0.57
  WS02003069WS02003072 CONDUIT   1562.56     0  02:26      1.92    0.75    0.68
  WS02003072WS02003073 CONDUIT   1562.99     0  02:26      2.08    3.38    0.63
  WS02004138WS02004139 CONDUIT    190.63     0  00:29      2.18    0.04    0.42
  WS02004139WS02001211 CONDUIT    197.18     0  03:07      0.54    0.25    0.62
  WS02004401WS02004402 CONDUIT   1370.72     0  02:25      1.75    1.65    1.00
  WS02004402WS02004403 CONDUIT   1369.73     0  02:25      1.74    1.97    1.00
  WS02004403WS02004404 CONDUIT   1370.75     0  02:25      1.75    0.99    1.00
  WS02004404WS02004405 CONDUIT   1370.68     0  02:25      1.75   13.43    1.00
  WS02004405WS02004406 CONDUIT   1370.82     0  02:25      1.75    2.70    1.00
  WS02004406WS02004407 CONDUIT   1370.83     0  02:25      1.75    0.61    1.00
  WS02004407WS02004409 CONDUIT   1370.03     0  02:25      1.74    0.49    1.00
  WS02004409WS02004410 CONDUIT   1370.14     0  02:25      1.74    1.77    1.00
  WS02004410WS02004411 CONDUIT   1370.44     0  02:25      1.74    1.87    1.00
  WS02004411WS02004412 CONDUIT   1370.63     0  02:25      1.75    1.95    1.00
  WS02004412WS02004413 CONDUIT   1371.30     0  02:25      1.75    0.92    1.00
  WS02004413WS02003067 CONDUIT   1371.51     0  02:25      2.10    0.59    0.78
  WS02006109WS02006110 CONDUIT   1122.83     0  02:41      2.23    2.16    1.00
  WS02006110WS02006113 CONDUIT   1123.18     0  02:42      2.23    1.02    1.00
  WS02006111WS02006112 CONDUIT   1123.39     0  02:42      2.23    0.53    1.00
  WS02006112WS02006115 CONDUIT   1368.68     0  02:24      1.74    0.81    1.00
  WS02006113WS02006111 CONDUIT   1123.17     0  02:42      2.61    1.35    1.00
  WS02006115WS02006116 CONDUIT   1368.85     0  02:25      1.74    1.76    1.00
  WS02006116WS02004401 CONDUIT   1369.75     0  02:25      1.74    1.89    1.00
  WS02006228WS02006109 CONDUIT   1287.90     0  02:21      2.56    5.63    1.00
  WS02006229WS02006228 CONDUIT   1288.35     0  02:21      2.56    4.27    1.00
  WS02006230WS02006229 CONDUIT   1015.45     0  02:20      2.64   22.60    1.00
  WS02006231WS02006230 CONDUIT    535.29     0  03:42      1.39    8.12    1.00
  WS02006232WS02006231 CONDUIT    533.62     0  03:42      1.39    1.12    1.00
  WS02006234WS02006232 CONDUIT    531.48     0  03:42      1.41    1.08    1.00
  WS02006235WS02006234 CONDUIT    527.13     0  03:42      1.37    5.56    1.00
  WS02006238WS02006235 CONDUIT    422.63     0  02:36      1.45    0.94    1.00
  WS02006239WS02006238 CONDUIT    416.68     0  03:42      1.12    1.33    1.00
  WS02006240WS02006239 CONDUIT    416.62     0  03:42      1.26    1.31    1.00
  WS02006242WS02006240 CONDUIT    416.65     0  03:42      1.14    1.65    1.00
  WS02006243WS02006242 CONDUIT    416.71     0  03:42      1.34    0.89    1.00
  WS02006245WS02006243 CONDUIT    416.66     0  03:42      1.39    1.23    1.00
  WS02006247WS02006245 CONDUIT    416.48     0  03:42      1.37    3.30    1.00
  WS02006248WS02006247 CONDUIT    416.61     0  03:42      1.38    0.91    1.00
  WS02006249WS02006248 CONDUIT    416.84     0  03:42      1.38    2.28    1.00
  WS02006251WS02006249 CONDUIT   1382.97     0  02:25      3.59    3.99    1.00
  WS02006252WS02006251 CONDUIT    409.94     0  01:58     24.89    1.50    1.00
  WS02006253WS02006251 CONDUIT   1723.62     0  02:25      4.48    5.17    1.00
  WS02006256WS02006235 CONDUIT    288.93     0  00:00      4.23    3.06    1.00
  WS02006280WS02006229 CONDUIT   2305.49     0  02:20      4.39    0.49    1.00
  WS02006284WS02006280 CONDUIT   2303.86     0  02:21      2.96    0.96    1.00
  WS02006287WS02006284 CONDUIT   2303.83     0  02:21      2.93    1.07    1.00
  WSF200WS02003060     CONDUIT   1369.54     0  02:25      2.33    0.30    0.52
  YS02001580YS02001583 CONDUIT     71.41     0  02:06      0.48    0.28    1.00
  YS02001583YS02001586 CONDUIT    105.59     0  02:05      0.42    0.16    1.00
  YS02001586YS02001590 CONDUIT    322.00     0  02:36      1.25    0.56    1.00
  YS02001590YS02001593 CONDUIT    319.62     0  02:36      1.13    2.01    1.00
  YS02001593YS02001596 CONDUIT    317.98     0  02:34      1.72    0.50    1.00
  YS02001596YS02001600 CONDUIT    318.17     0  02:36      1.27    0.62    1.00
  YS02001600YS02001601 CONDUIT    318.57     0  02:36      1.13    0.55    1.00
  YS02001601YS02001602 CONDUIT    489.84     0  02:05      1.73    1.77    1.00
  YS02001602YS02001605 CONDUIT    489.92     0  02:05      1.73   10.37    1.00
  YS02001605YS02001607 CONDUIT    489.47     0  02:05      1.73    2.68    1.00
  YS02001607YS02001610 CONDUIT    489.13     0  02:05      0.62    0.47    1.00
  YS02001610YS02001613 CONDUIT    614.04     0  02:27      0.78    0.71    1.00
  YS02001613YS02001616 CONDUIT    614.29     0  02:27      0.78    0.53    1.00
  YS02001616YS02001619 CONDUIT    614.22     0  02:27      0.78    1.07    1.00
  YS02001619YS02001622 CONDUIT   1053.69     0  02:26      1.34    1.55    1.00
  YS02001622YS02001625 CONDUIT   1053.57     0  02:26      1.34    0.56    1.00
  YS02001625YS02001629 CONDUIT    896.75     0  02:09      1.14    0.43    1.00
  YS02001629YS02163301 CONDUIT    895.14     0  02:09      1.14    1.10    1.00
  YS02001633YS02163601 CONDUIT   1236.69     0  02:09      1.57    1.30    1.00
  YS02001641YS02001644 CONDUIT   1236.13     0  02:10      1.57    4.00    1.00
  YS02001644YS02001647 CONDUIT   1543.60     0  02:10      2.01    0.91    1.00
  YS02001647YS02001649 CONDUIT   1549.94     0  02:10      2.17    0.82    1.00
  YS02001649YS02001757 CONDUIT   1757.65     0  02:11      2.27    1.07    1.00
  YS02001652YS02001649 CONDUIT   1128.34     0  02:25      1.44    0.56    1.00
  YS02001655YS02001652 CONDUIT   1128.07     0  02:25      1.44    0.55    1.00
  YS02001658YS02001655 CONDUIT   1127.53     0  02:25      1.78    0.48    1.00
  YS02001661YS02001658 CONDUIT   1128.17     0  02:25      2.09    0.44    1.00
  YS02001664YS02001661 CONDUIT   1126.43     0  02:25      1.98    0.35    0.88
  YS02001745YS02001748 CONDUIT    652.04     0  02:25      1.88    0.25    0.97
  YS02001748YS02001751 CONDUIT    651.83     0  02:25      1.50    0.33    1.00
  YS02001751YS02001754 CONDUIT    652.34     0  02:25      1.34    0.31    1.00
  YS02001754YS02001757 CONDUIT    653.73     0  02:25      0.83    0.26    1.00
  YS02001757CaochengTiaoxuchi CONDUIT   2933.38     0  02:24      3.73    1.27    1.00
  YS02001759YS02001757 CONDUIT   1299.60     0  02:25      1.65    0.92    1.00
  YS02001762YS02001759 CONDUIT    668.32     0  02:18      0.85    0.77    1.00
  YS02001765YS02001762 CONDUIT    668.59     0  02:18      0.85    0.63    1.00
  YS02001767YS02001765 CONDUIT    668.14     0  02:18      0.85    0.84    1.00
  YS02001770YS02001767 CONDUIT    667.36     0  02:18      0.85    2.64    1.00
  YS02001774YS02001770 CONDUIT    847.47     0  02:26      1.08    0.54    1.00
  YS02001779YS02001774 CONDUIT    847.68     0  02:26      1.08    0.43    1.00
  YS02001783YS02001784 CONDUIT   1167.73     0  02:23      2.32    1.61    1.00
  YS02001784YS02001785 CONDUIT   1168.50     0  02:23      2.32    2.72    1.00
  YS02001786YS02001788 CONDUIT   1169.40     0  02:24      2.49    2.25    0.89
  YS02001788YS02001790 CONDUIT   1176.66     0  02:23      2.72    0.87    0.84
  YS02001790YS02001791 CONDUIT   1296.07     0  02:24      3.43    1.41    0.71
  YS02001791YS02001793 CONDUIT   1257.69     0  02:21      6.80    0.54    0.43
  YS02001793JiankangQianchi CONDUIT   1288.90     0  02:21      2.57    0.10    0.64
  YS02001882YS02001884 CONDUIT     29.54     0  02:11      0.15    0.03    1.00
  YS02001884YS02001887 CONDUIT     35.32     0  02:49      0.11    0.05    1.00
  YS02001887YS02001890 CONDUIT    991.18     0  02:25      1.26    1.70    1.00
  YS02001890YS02001895 CONDUIT    517.98     0  02:25      0.66    0.24    1.00
  YS02001895YS02001898 CONDUIT    518.40     0  02:25      0.66    0.90    1.00
  YS02001898YS02001901 CONDUIT    518.25     0  02:26      0.66    0.33    1.00
  YS02001901YS02001904 CONDUIT    517.81     0  02:25      0.66    0.80    1.00
  YS02001904YS02001907 CONDUIT    518.06     0  02:24      0.66    0.18    1.00
  YS02001907YS02006553 CONDUIT    798.80     0  02:37      0.89    0.94    1.00
  YS02001910YS02001907 CONDUIT   1687.78     0  02:25      2.15    0.95    1.00
  YS02001915YS02001910 CONDUIT   1687.35     0  02:25      2.15    0.84    1.00
  YS02001918YS02001915 CONDUIT    594.06     0  02:25      0.76    0.33    1.00
  YS02001920YS02001918 CONDUIT    592.89     0  02:25      0.75    0.57    1.00
  YS02001923YS02001920 CONDUIT    590.34     0  02:25      0.75    0.26    1.00
  YS02001926YS02001923 CONDUIT    590.64     0  02:25      0.95    0.84    1.00
  YS02001929YS02001926 CONDUIT    589.90     0  02:25      1.08    0.28    1.00
  YS02006553YS02006556 CONDUIT    798.80     0  02:37      1.02    0.68    1.00
  YS02006556YS02006558 CONDUIT    800.45     0  02:37      1.02    0.63    1.00
  YS02006558YS02006561 CONDUIT   1167.55     0  02:24      4.13    2.58    1.00
  YS02006561YS02001783 CONDUIT   1167.31     0  02:24      2.32    0.60    1.00
  YS02163301YS02001633 CONDUIT    896.09     0  02:09      1.14    0.84    1.00
  YS02163601YS02164001 CONDUIT   1236.96     0  02:09      1.57    1.10    1.00
  YS02164001YS02001641 CONDUIT   1234.35     0  02:10      1.57    1.69    1.00
  YSB1154YSB6556       CONDUIT    571.93     0  02:25      1.49    1.03    1.00
  YSB1171HS02004479    CONDUIT    378.15     0  02:14      0.75    0.25    1.00
  YSB1174YSB1171       CONDUIT    468.64     0  02:25      1.22    0.72    1.00
  YSB6556YSB1171       CONDUIT    572.93     0  02:25      1.49    0.59    1.00
  CC-R1                PUMP       683.00     0  00:00              1.00
  CC-R2                PUMP       683.00     0  00:00              1.00
  CC-S1                PUMP       200.00     0  00:00              1.00
  CC-S2                PUMP       200.00     0  00:00              1.00
  JK-R1                PUMP      1000.00     0  00:00              1.00
  JK-R2                PUMP      1000.00     0  00:00              1.00
  JK-S                 PUMP       300.00     0  00:00              1.00
  XR-1                 PUMP        95.00     0  00:00              1.00
  XR-2                 PUMP        95.00     0  00:00              1.00
  XR-3                 PUMP        95.00     0  00:00              1.00
  XR-4                 PUMP        95.00     0  00:00              1.00
  
  
  ***************************
  Flow Classification Summary
  ***************************
  
  -------------------------------------------------------------------------------------
                      Adjusted    ---------- Fraction of Time in Flow Class ---------- 
                       /Actual         Up    Down  Sub   Sup   Up    Down  Norm  Inlet 
  Conduit               Length    Dry  Dry   Dry   Crit  Crit  Crit  Crit  Ltd   Ctrl  
  -------------------------------------------------------------------------------------
  1                       1.00   0.00  0.00  0.00  0.00  1.00  0.00  0.00  0.33  0.00
  HS02004478WS02006287    1.00   0.10  0.00  0.00  0.60  0.30  0.00  0.00  0.58  0.00
  HS02004479HS02004480    1.00   0.04  0.00  0.00  0.96  0.00  0.00  0.00  0.11  0.00
  HS02004480HS02004478    1.00   0.09  0.00  0.00  0.50  0.00  0.00  0.41  0.00  0.00
  HS02004770HS02004777    1.00   0.00  0.09  0.00  0.91  0.00  0.00  0.00  0.02  0.00
  HS02004777HS02004785    1.00   0.00  0.00  0.00  1.00  0.00  0.00  0.00  0.11  0.00
  HS02004785HS02004788    1.00   0.00  0.00  0.00  1.00  0.00  0.00  0.00  0.00  0.00
  HS02004788HS02004792    1.00   0.00  0.00  0.00  0.99  0.01  0.00  0.00  0.88  0.00
  HS02004792HS02004799    1.00   0.00  0.00  0.00  0.99  0.01  0.00  0.00  0.83  0.00
  HS02004799HS02004480    1.00   0.00  0.04  0.00  0.90  0.00  0.06  0.00  0.00  0.00
  HS02004802HS02004478    1.00   0.09  0.00  0.00  0.91  0.00  0.00  0.00  0.02  0.00
  HS02004807HS02004802    1.00   0.09  0.00  0.00  0.91  0.00  0.00  0.01  0.00  0.00
  HS02004817HS02004807    1.00   0.00  0.09  0.00  0.91  0.00  0.00  0.00  0.01  0.00
  HS02004817HS02004824    1.00   0.00  0.00  0.00  1.00  0.00  0.00  0.00  0.79  0.00
  HS02004824HS02004830    1.00   0.00  0.00  0.00  1.00  0.00  0.00  0.00  0.01  0.00
  HS02004830HS02004837    1.00   0.00  0.00  0.00  1.00  0.00  0.00  0.00  0.85  0.00
  HS02004837HS02004842    1.00   0.00  0.00  0.00  1.00  0.00  0.00  0.00  0.11  0.00
  HS02004842HS02004848    1.00   0.00  0.09  0.00  0.91  0.00  0.00  0.00  0.54  0.00
  HS02004848HS02004852    1.00   0.09  0.00  0.00  0.91  0.00  0.00  0.00  0.69  0.00
  HS02004852HS02004856    1.00   0.09  0.00  0.00  0.91  0.00  0.00  0.00  0.65  0.00
  HS02004856HS02004862    1.00   0.00  0.10  0.00  0.90  0.00  0.00  0.00  0.72  0.00
  HS02004862HS02004870    1.00   0.00  0.00  0.00  1.00  0.00  0.00  0.00  0.03  0.00
  HS02004870HS02004876    1.00   0.00  0.00  0.00  0.99  0.01  0.00  0.00  0.83  0.00
  HS02004876HS02004881    1.00   0.02  0.00  0.00  0.72  0.26  0.00  0.00  0.00  0.00
  HS02004881HS02006253    1.00   0.03  0.02  0.00  0.46  0.02  0.00  0.47  0.17  0.00
  HS02004901HS02004770    1.00   0.09  0.00  0.00  0.91  0.00  0.00  0.00  0.00  0.00
  WS02001211WS02001212    1.00   0.00  0.03  0.00  0.97  0.00  0.00  0.00  0.00  0.00
  WS02001212WS02001213    1.00   0.03  0.00  0.00  0.53  0.00  0.44  0.00  0.00  0.00
  WS02001213WS02003059    1.00   0.00  0.00  0.00  0.99  0.00  0.00  0.00  0.00  0.00
  WS02003059WS02003060    1.00   0.00  0.00  0.00  1.00  0.00  0.00  0.00  0.03  0.00
  WS02003060WS02003069    1.00   0.00  0.00  0.00  0.99  0.01  0.00  0.00  0.59  0.00
  WS02003066WSF200        1.00   0.06  0.00  0.00  0.00  0.94  0.00  0.00  0.62  0.00
  WS02003067WS02003066    1.00   0.05  0.00  0.00  0.94  0.00  0.00  0.00  0.00  0.00
  WS02003069WS02003072    1.00   0.00  0.00  0.00  1.00  0.00  0.00  0.00  0.65  0.00
  WS02003072WS02003073    1.00   0.00  0.00  0.00  0.00  0.00  0.00  1.00  0.00  0.00
  WS02004138WS02004139    1.00   0.00  0.01  0.00  0.97  0.01  0.00  0.01  0.98  0.00
  WS02004139WS02001211    1.00   0.00  0.00  0.00  0.99  0.00  0.00  0.00  0.00  0.00
  WS02004401WS02004402    1.00   0.03  0.00  0.00  0.97  0.00  0.00  0.00  0.00  0.00
  WS02004402WS02004403    1.00   0.03  0.00  0.00  0.97  0.00  0.00  0.00  0.00  0.00
  WS02004403WS02004404    1.00   0.00  0.03  0.00  0.97  0.00  0.00  0.00  0.00  0.00
  WS02004404WS02004405    1.00   0.00  0.00  0.00  1.00  0.00  0.00  0.00  0.01  0.00
  WS02004405WS02004406    1.00   0.00  0.00  0.00  1.00  0.00  0.00  0.00  0.00  0.00
  WS02004406WS02004407    1.00   0.00  0.04  0.00  0.96  0.00  0.00  0.00  0.00  0.00
  WS02004407WS02004409    1.00   0.04  0.00  0.00  0.95  0.01  0.00  0.00  0.80  0.00
  WS02004409WS02004410    1.00   0.04  0.00  0.00  0.96  0.00  0.00  0.00  0.00  0.00
  WS02004410WS02004411    1.00   0.04  0.00  0.00  0.96  0.00  0.00  0.00  0.00  0.00
  WS02004411WS02004412    1.00   0.04  0.00  0.00  0.96  0.00  0.00  0.00  0.00  0.00
  WS02004412WS02004413    1.00   0.04  0.00  0.00  0.95  0.00  0.00  0.00  0.00  0.00
  WS02004413WS02003067    1.00   0.05  0.01  0.00  0.00  0.00  0.95  0.00  0.00  0.00
  WS02006109WS02006110    1.00   0.00  0.01  0.00  0.98  0.00  0.01  0.00  0.00  0.00
  WS02006110WS02006113    1.00   0.01  0.01  0.00  0.98  0.00  0.00  0.00  0.00  0.00
  WS02006111WS02006112    1.00   0.02  0.00  0.00  0.97  0.00  0.00  0.00  0.74  0.00
  WS02006112WS02006115    1.00   0.02  0.00  0.00  0.97  0.00  0.00  0.00  0.00  0.00
  WS02006113WS02006111    1.00   0.02  0.00  0.00  0.31  0.67  0.00  0.00  0.06  0.00
  WS02006115WS02006116    1.00   0.03  0.00  0.00  0.97  0.00  0.00  0.01  0.00  0.00
  WS02006116WS02004401    1.00   0.03  0.00  0.00  0.97  0.00  0.00  0.00  0.00  0.00
  WS02006228WS02006109    1.00   0.00  0.00  0.00  1.00  0.00  0.00  0.00  0.00  0.00
  WS02006229WS02006228    1.00   0.00  0.00  0.00  0.99  0.00  0.00  0.01  0.00  0.00
  WS02006230WS02006229    1.00   0.00  0.00  0.00  0.98  0.00  0.00  0.02  0.00  0.00
  WS02006231WS02006230    1.00   0.00  0.00  0.00  0.56  0.00  0.44  0.00  0.00  0.00
  WS02006232WS02006231    1.00   0.00  0.00  0.00  0.99  0.00  0.00  0.00  0.00  0.00
  WS02006234WS02006232    1.00   0.00  0.00  0.00  1.00  0.00  0.00  0.00  0.34  0.00
  WS02006235WS02006234    1.00   0.00  0.00  0.00  0.72  0.00  0.28  0.00  0.00  0.00
  WS02006238WS02006235    1.00   0.00  0.00  0.00  1.00  0.00  0.00  0.00  0.00  0.00
  WS02006239WS02006238    1.00   0.00  0.00  0.00  1.00  0.00  0.00  0.00  0.47  0.00
  WS02006240WS02006239    1.00   0.00  0.00  0.00  0.63  0.00  0.00  0.37  0.00  0.00
  WS02006242WS02006240    1.00   0.00  0.00  0.00  0.99  0.00  0.01  0.00  0.00  0.00
[...]
  WS02006284WS02006280    1.00   0.09  0.00  0.00  0.21  0.02  0.00  0.68  0.00  0.00
  WS02006287WS02006284    1.00   0.08  0.02  0.00  0.48  0.43  0.00  0.00  0.63  0.00
  WSF200WS02003060        1.00   0.00  0.06  0.00  0.43  0.52  0.00  0.00  0.62  0.00
  YS02001580YS02001583    1.00   0.27  0.40  0.00  0.33  0.00  0.00  0.00  0.63  0.00
  YS02001583YS02001586    1.00   0.29  0.28  0.00  0.42  0.00  0.00  0.00  0.63  0.00
  YS02001586YS02001590    1.00   0.09  0.00  0.00  0.65  0.02  0.00  0.24  0.35  0.00
  YS02001590YS02001593    1.00   0.09  0.00  0.00  0.21  0.00  0.70  0.00  0.00  0.00
  YS02001593YS02001596    1.00   0.09  0.00  0.00  0.24  0.02  0.00  0.65  0.02  0.00
  YS02001596YS02001600    1.00   0.09  0.00  0.00  0.36  0.02  0.00  0.53  0.05  0.00
  YS02001600YS02001601    1.00   0.09  0.00  0.00  0.91  0.00  0.00  0.00  0.59  0.00
  YS02001601YS02001602    1.00   0.09  0.00  0.00  0.91  0.00  0.00  0.00  0.00  0.00
  YS02001602YS02001605    1.00   0.09  0.00  0.00  0.91  0.00  0.00  0.00  0.00  0.00
  YS02001605YS02001607    1.00   0.09  0.00  0.00  0.91  0.00  0.00  0.00  0.00  0.00
  YS02001607YS02001610    1.00   0.09  0.00  0.00  0.91  0.00  0.00  0.00  0.01  0.00
  YS02001610YS02001613    1.00   0.09  0.00  0.00  0.91  0.00  0.00  0.00  0.00  0.00
  YS02001613YS02001616    1.00   0.09  0.00  0.00  0.91  0.00  0.00  0.00  0.00  0.00
  YS02001616YS02001619    1.00   0.09  0.00  0.00  0.91  0.00  0.00  0.00  0.00  0.00
  YS02001619YS02001622    1.00   0.09  0.00  0.00  0.91  0.00  0.00  0.00  0.32  0.00
  YS02001622YS02001625    1.00   0.09  0.00  0.00  0.91  0.00  0.00  0.00  0.03  0.00
  YS02001625YS02001629    1.00   0.09  0.02  0.00  0.30  0.00  0.59  0.00  0.00  0.00
  YS02001629YS02163301    1.00   0.09  0.00  0.00  0.90  0.00  0.00  0.00  0.00  0.00
  YS02001633YS02163601    1.00   0.00  0.01  0.00  0.99  0.00  0.00  0.00  0.14  0.00
  YS02001641YS02001644    1.00   0.00  0.00  0.00  0.99  0.00  0.00  0.00  0.00  0.00
  YS02001644YS02001647    1.00   0.00  0.10  0.00  0.90  0.00  0.00  0.00  0.00  0.00
  YS02001647YS02001649    1.00   0.00  0.10  0.00  0.57  0.33  0.00  0.00  0.58  0.00
  YS02001649YS02001757    1.00   0.00  0.00  0.00  0.65  0.34  0.00  0.00  0.48  0.00
  YS02001652YS02001649    1.00   0.00  0.00  0.00  0.98  0.02  0.00  0.00  0.73  0.00
  YS02001655YS02001652    1.00   0.00  0.00  0.00  0.34  0.02  0.00  0.64  0.05  0.00
  YS02001658YS02001655    1.00   0.00  0.09  0.00  0.64  0.27  0.00  0.00  0.67  0.00
  YS02001661YS02001658    1.00   0.09  0.00  0.00  0.46  0.45  0.00  0.00  0.67  0.00
  YS02001664YS02001661    1.00   0.09  0.00  0.00  0.74  0.17  0.00  0.00  0.85  0.00
  YS02001745YS02001748    1.00   0.00  0.00  0.00  0.19  0.00  0.00  0.81  0.04  0.00
  YS02001748YS02001751    1.00   0.00  0.00  0.00  0.78  0.22  0.00  0.00  0.73  0.00
  YS02001751YS02001754    1.00   0.00  0.00  0.00  0.29  0.01  0.00  0.70  0.03  0.00
  YS02001754YS02001757    1.00   0.00  0.00  0.00  1.00  0.00  0.00  0.00  0.80  0.00
  YS02001757CaochengTiaoxuchi    1.00   0.00  0.00  0.00  1.00  0.00  0.00  0.00  0.80  0.00
  YS02001759YS02001757    1.00   0.00  0.00  0.00  1.00  0.00  0.00  0.00  0.60  0.00
  YS02001762YS02001759    1.00   0.00  0.00  0.00  1.00  0.00  0.00  0.00  0.03  0.00
  YS02001765YS02001762    1.00   0.00  0.00  0.00  1.00  0.00  0.00  0.00  0.69  0.00
  YS02001767YS02001765    1.00   0.00  0.00  0.00  1.00  0.00  0.00  0.00  0.00  0.00
  YS02001770YS02001767    1.00   0.00  0.00  0.00  1.00  0.00  0.00  0.00  0.00  0.00
  YS02001774YS02001770    1.00   0.00  0.09  0.00  0.76  0.00  0.15  0.00  0.02  0.00
  YS02001779YS02001774    1.00   0.00  0.00  0.00  1.00  0.00  0.00  0.00  0.73  0.00
  YS02001783YS02001784    1.00   0.00  0.11  0.00  0.89  0.00  0.00  0.00  0.56  0.00
  YS02001784YS02001785    1.00   0.00  0.00  0.00  1.00  0.00  0.00  0.00  0.16  0.00
  YS02001786YS02001788    1.00   0.00  0.00  0.00  0.64  0.36  0.00  0.00  0.00  0.00
  YS02001788YS02001790    1.00   0.00  0.00  0.00  0.16  0.84  0.00  0.00  0.79  0.00
  YS02001790YS02001791    1.00   0.00  0.00  0.00  0.01  0.99  0.00  0.00  0.16  0.00
  YS02001791YS02001793    1.00   0.00  0.00  0.00  0.00  1.00  0.00  0.00  0.01  0.00
  YS02001793JiankangQianchi    1.00   0.00  0.00  0.00  0.94  0.05  0.00  0.00  0.97  0.00
  YS02001882YS02001884    1.00   0.09  0.00  0.00  0.90  0.00  0.00  0.00  0.00  0.00
  YS02001884YS02001887    1.00   0.05  0.03  0.00  0.92  0.00  0.00  0.00  0.00  0.00
  YS02001887YS02001890    1.00   0.00  0.00  0.00  0.96  0.00  0.03  0.00  0.00  0.00
  YS02001890YS02001895    1.00   0.00  0.10  0.00  0.90  0.00  0.00  0.00  0.00  0.00
  YS02001895YS02001898    1.00   0.10  0.00  0.00  0.88  0.00  0.02  0.00  0.00  0.00
  YS02001898YS02001901    1.00   0.10  0.00  0.00  0.90  0.00  0.00  0.00  0.01  0.00
  YS02001901YS02001904    1.00   0.10  0.00  0.00  0.90  0.00  0.00  0.00  0.00  0.00
  YS02001904YS02001907    1.00   0.00  0.10  0.00  0.90  0.00  0.00  0.00  0.00  0.00
  YS02001907YS02006553    1.00   0.00  0.02  0.00  0.97  0.00  0.00  0.00  0.00  0.00
  YS02001910YS02001907    1.00   0.00  0.00  0.00  0.97  0.00  0.00  0.03  0.12  0.00
  YS02001915YS02001910    1.00   0.00  0.00  0.00  0.97  0.03  0.00  0.00  0.13  0.00
  YS02001918YS02001915    1.00   0.00  0.00  0.00  0.97  0.02  0.00  0.00  0.74  0.00
  YS02001920YS02001918    1.00   0.00  0.00  0.00  1.00  0.00  0.00  0.00  0.00  0.00
  YS02001923YS02001920    1.00   0.00  0.00  0.00  1.00  0.00  0.00  0.00  0.92  0.00
  YS02001926YS02001923    1.00   0.00  0.06  0.00  0.09  0.00  0.85  0.00  0.00  0.00
  YS02001929YS02001926    1.00   0.00  0.09  0.00  0.91  0.00  0.00  0.00  0.82  0.00
  YS02006553YS02006556    1.00   0.01  0.00  0.00  0.99  0.00  0.00  0.00  0.03  0.00
  YS02006556YS02006558    1.00   0.00  0.00  0.00  1.00  0.00  0.00  0.00  0.00  0.00
  YS02006558YS02006561    1.00   0.11  0.00  0.00  0.08  0.81  0.00  0.00  0.17  0.00
  YS02006561YS02001783    1.00   0.11  0.00  0.00  0.14  0.75  0.00  0.00  0.68  0.00
  YS02163301YS02001633    1.00   0.00  0.09  0.00  0.91  0.00  0.00  0.00  0.00  0.00
  YS02163601YS02164001    1.00   0.00  0.07  0.00  0.93  0.00  0.00  0.00  0.00  0.00
  YS02164001YS02001641    1.00   0.01  0.06  0.00  0.93  0.00  0.00  0.00  0.05  0.00
  YSB1154YSB6556          1.00   0.09  0.00  0.00  0.91  0.00  0.00  0.00  0.01  0.00
  YSB1171HS02004479       1.00   0.04  0.00  0.00  0.95  0.00  0.00  0.01  0.10  0.00
  YSB1174YSB1171          1.00   0.05  0.02  0.00  0.93  0.00  0.00  0.00  0.00  0.00
  YSB6556YSB1171          1.00   0.04  0.04  0.00  0.91  0.00  0.00  0.00  0.00  0.00
  
  
  *************************
  Conduit Surcharge Summary
  *************************
  
  ----------------------------------------------------------------------------
                                                           Hours        Hours 
                         --------- Hours Full --------   Above Full   Capacity
  Conduit                Both Ends  Upstream  Dnstream   Normal Flow   Limited
  ----------------------------------------------------------------------------
  HS02004478WS02006287        0.63      0.63      0.83      0.01         0.01
  HS02004479HS02004480        0.83      0.83      0.86      0.01         0.01
  HS02004480HS02004478        0.74      0.82      0.74      1.87         0.74
  HS02004770HS02004777        0.71      0.71      0.72      0.13         0.08
  HS02004777HS02004785        0.66      0.66      0.72      0.01         0.01
  HS02004785HS02004788        0.65      0.66      0.65      1.55         0.55
  HS02004788HS02004792        0.65      0.65      0.79      0.01         0.01
  HS02004792HS02004799        0.79      0.79      0.95      0.01         0.01
  HS02004799HS02004480        0.82      0.82      0.95      1.07         0.01
  HS02004802HS02004478        0.76      0.76      0.85      0.19         0.01
  HS02004807HS02004802        0.80      0.80      0.84      0.35         0.36
  HS02004817HS02004807        0.80      0.80      1.42      0.01         0.01
  HS02004817HS02004824        0.65      0.65      1.42      0.01         0.01
  HS02004824HS02004830        0.62      0.62      0.65      0.01         0.01
  HS02004830HS02004837        0.57      0.57      0.62      0.01         0.01
  HS02004837HS02004842        0.57      0.57      0.72      0.01         0.01
  HS02004842HS02004848        0.54      0.54      0.72      0.01         0.01
  HS02004848HS02004852        0.54      0.54      0.56      0.01         0.01
  HS02004852HS02004856        0.56      0.56      0.59      0.01         0.01
  HS02004856HS02004862        0.55      0.55      0.59      0.01         0.01
  HS02004862HS02004870        0.59      0.59      0.61      0.26         0.26
  HS02004870HS02004876        0.61      0.61      0.68      0.01         0.01
  HS02004876HS02004881        0.66      0.68      0.66      1.64         0.66
  HS02004881HS02006253        0.66      0.66      2.04      0.01         0.01
  HS02004901HS02004770        0.71      0.71      0.72      0.09         0.01
  WS02003072WS02003073        0.01      0.01      0.01      2.58         0.01
  WS02004401WS02004402        1.65      1.65      1.69      1.46         1.44
  WS02004402WS02004403        1.69      1.69      1.70      1.64         1.64
  WS02004403WS02004404        1.70      1.70      1.99      0.01         0.05
  WS02004404WS02004405        1.85      1.99      1.85      2.91         1.85
  WS02004405WS02004406        1.81      1.85      1.81      2.29         1.81
  WS02004406WS02004407        0.06      0.06      1.81      0.01         0.01
  WS02004407WS02004409        0.06      0.06      1.27      0.01         0.01
  WS02004409WS02004410        1.22      1.27      1.22      1.53         1.22
  WS02004410WS02004411        1.11      1.22      1.11      1.59         1.11
  WS02004411WS02004412        0.98      1.11      0.98      1.63         0.98
  WS02004412WS02004413        0.98      0.98      1.41      0.01         0.01
  WS02004413WS02003067        0.01      0.01      1.41      0.01         0.01
  WS02006109WS02006110        2.26      2.26      2.43      2.26         0.01
  WS02006110WS02006113        1.40      1.40      2.41      0.32         0.01
  WS02006111WS02006112        1.40      1.40      2.52      0.01         0.01
  WS02006112WS02006115        1.55      1.55      2.31      0.01         0.01
  WS02006113WS02006111        1.40      1.40      1.40      1.43         1.40
  WS02006115WS02006116        1.56      1.56      1.56      1.52         1.52
  WS02006116WS02004401        1.65      1.65      1.65      1.60         1.60
  WS02006228WS02006109        2.40      2.43      2.40      2.70         2.40
  WS02006229WS02006228        2.40      2.40      2.40      2.54         2.40
  WS02006230WS02006229        2.44      2.45      2.44      2.78         1.05
  WS02006231WS02006230        2.06      2.06      2.21      2.53         1.28
  WS02006232WS02006231        2.20      2.20      2.29      0.11         0.19
  WS02006234WS02006232        2.24      2.24      2.29      0.10         0.09
  WS02006235WS02006234        2.24      2.24      2.24      2.34         1.23
  WS02006238WS02006235        2.24      2.24      2.25      0.01         0.48
  WS02006239WS02006238        2.23      2.23      2.24      1.63         0.53
  WS02006240WS02006239        2.17      2.17      2.20      1.62         0.52
  WS02006242WS02006240        2.16      2.16      2.19      1.88         1.13
  WS02006243WS02006242        2.11      2.11      2.17      0.01         0.01
  WS02006245WS02006243        2.10      2.10      2.10      0.54         0.48
  WS02006247WS02006245        2.10      2.10      2.10      2.09         0.75
  WS02006248WS02006247        2.08      2.08      2.09      0.01         0.01
  WS02006249WS02006248        2.08      2.08      2.08      0.80         0.01
  WS02006251WS02006249        2.07      2.07      2.08      2.10         2.00
  WS02006252WS02006251        2.16      2.16      2.19      1.61         0.13
  WS02006253WS02006251        2.07      2.07      2.07      0.97         0.01
  WS02006256WS02006235        2.76      2.76      4.59      0.64         0.01
  WS02006280WS02006229        0.99      0.99      1.16      0.01         0.01
  WS02006284WS02006280        0.86      0.86      0.97      0.01         0.01
  WS02006287WS02006284        0.73      0.73      0.87      0.40         0.41
  YS02001580YS02001583        0.72      0.72      0.77      0.01         0.01
  YS02001583YS02001586        0.73      0.73      0.85      0.01         0.01
  YS02001586YS02001590        0.85      0.85      0.93      0.01         0.01
  YS02001590YS02001593        0.93      0.93      0.96      0.94         0.01
  YS02001593YS02001596        0.95      0.95      1.06      0.01         0.01
  YS02001596YS02001600        1.12      1.12      1.23      0.01         0.01
  YS02001600YS02001601        1.29      1.29      1.58      0.01         0.01
  YS02001601YS02001602        1.47      1.47      1.62      1.23         0.01
  YS02001602YS02001605        1.41      1.41      1.47      2.37         0.01
  YS02001605YS02001607        1.37      1.41      1.37      1.51         1.35
  YS02001607YS02001610        0.93      0.93      0.96      0.01         0.01
  YS02001610YS02001613        0.93      0.93      0.96      0.01         0.01
  YS02001613YS02001616        0.88      0.88      0.93      0.01         0.01
  YS02001616YS02001619        0.86      0.86      0.88      0.06         0.08
  YS02001619YS02001622        0.86      0.86      0.86      0.90         0.79
  YS02001622YS02001625        0.86      0.86      1.05      0.01         0.01
  YS02001625YS02001629        0.80      0.80      1.05      0.01         0.01
  YS02001629YS02163301        1.05      1.05      1.07      0.09         0.13
  YS02001633YS02163601        1.09      1.09      1.13      0.25         0.26
  YS02001641YS02001644        1.00      1.03      1.00      1.67         0.98
  YS02001644YS02001647        0.80      0.80      1.00      0.01         0.01
  YS02001647YS02001649        0.80      0.80      0.92      0.01         0.01
  YS02001649YS02001757        0.92      0.92      0.99      0.05         0.04
  YS02001652YS02001649        0.76      0.76      0.92      0.01         0.01
  YS02001655YS02001652        0.58      0.58      0.74      0.01         0.01
  YS02001658YS02001655        0.33      0.33      0.58      0.01         0.01
  YS02001661YS02001658        0.10      0.10      0.33      0.01         0.01
  YS02001664YS02001661        0.01      0.01      0.15      0.01         0.01
  YS02001745YS02001748        0.01      0.01      0.26      0.01         0.01
  YS02001748YS02001751        0.30      0.30      0.45      0.01         0.01
  YS02001751YS02001754        0.45      0.45      0.67      0.01         0.01
  YS02001754YS02001757        0.71      0.71      0.99      0.01         0.01
  YS02001757CaochengTiaoxuchi        0.99      0.99      1.59      0.39         0.39
  YS02001759YS02001757        0.91      0.91      0.99      0.01         0.01
  YS02001762YS02001759        0.88      0.88      0.91      0.01         0.01
  YS02001765YS02001762        0.85      0.85      0.88      0.01         0.01
  YS02001767YS02001765        0.81      0.81      0.85      0.01         0.01
  YS02001770YS02001767        0.80      0.80      0.81      0.51         0.52
  YS02001774YS02001770        0.79      0.79      0.87      0.01         0.01
  YS02001779YS02001774        0.65      0.65      0.87      0.01         0.01
  YS02001783YS02001784        0.54      0.57      0.54      0.75         0.54
  YS02001784YS02001785        0.43      0.54      0.43      1.04         0.43
  YS02001786YS02001788        0.01      0.43      0.01      0.89         0.01
  YS02001790YS02001791        0.01      0.01      0.01      0.53         0.01
  YS02001793JiankangQianchi        0.01      0.01      7.70      0.01         0.01
  YS02001882YS02001884        0.51      0.51      0.52      0.01         0.01
  YS02001884YS02001887        0.54      0.54      0.56      0.01         0.01
  YS02001887YS02001890        0.57      0.57      0.59      0.15         0.01
  YS02001890YS02001895        0.50      0.50      0.61      0.01         0.01
  YS02001895YS02001898        0.49      0.49      0.50      0.01         0.01
  YS02001898YS02001901        0.50      0.50      0.54      0.01         0.01
  YS02001901YS02001904        0.53      0.53      0.54      0.01         0.01
  YS02001904YS02001907        0.53      0.53      0.87      0.01         0.01
  YS02001907YS02006553        1.05      1.05      1.14      0.01         0.01
  YS02001910YS02001907        0.60      0.60      0.84      0.01         0.01
  YS02001915YS02001910        0.51      0.51      0.60      0.01         0.01
  YS02001918YS02001915        0.42      0.42      0.51      0.01         0.01
  YS02001920YS02001918        0.42      0.42      0.43      0.01         0.01
  YS02001923YS02001920        0.37      0.37      0.43      0.01         0.01
  YS02001926YS02001923        0.13      0.13      0.16      0.01         0.01
  YS02001929YS02001926        0.02      0.02      0.16      0.01         0.01
  YS02006553YS02006556        0.71      0.71      0.87      0.01         0.01
  YS02006556YS02006558        0.79      0.79      0.89      0.01         0.01
  YS02006558YS02006561        0.45      0.69      0.45      0.98         0.45
  YS02006561YS02001783        0.37      0.37      0.57      0.01         0.01
  YS02163301YS02001633        1.07      1.07      1.11      0.01         0.01
  YS02163601YS02164001        1.03      1.03      1.13      0.10         0.01
  YS02164001YS02001641        1.02      1.03      1.03      0.70         0.60
  YSB1154YSB6556              0.91      0.91      1.09      0.02         0.01
  YSB1171HS02004479           0.78      0.78      1.10      0.01         0.01
  YSB1174YSB1171              0.99      0.99      1.34      0.01         0.01
  YSB6556YSB1171              0.91      0.91      1.49      0.01         0.01
  
  
  ***************
  Pumping Summary
  ***************
  
  ---------------------------------------------------------------------------------------------------------
                                                  Min       Avg       Max     Total     Power    % Time Off
                        Percent   Number of      Flow      Flow      Flow    Volume     Usage    Pump Curve
  Pump                 Utilized   Start-Ups       LPS       LPS       LPS  10^6 ltr     Kw-hr    Low   High
  ---------------------------------------------------------------------------------------------------------
  CC-R1                   22.95           2      0.00    683.00    683.00     4.515     84.93    0.0   20.7
  CC-R2                   21.22           2      0.00    683.00    683.00     4.174     78.63    0.0   22.4
  CC-S1                   26.66           2      0.00    200.00    200.00     1.535     10.00    0.0    0.0
  CC-S2                   24.59           2      0.00    200.00    200.00     1.417      9.20    0.0    0.0
  JK-R1                    8.65           6      0.00   1000.00   1000.00     2.490     24.01    0.0    0.0
  JK-R2                    0.16           1      0.00   1000.00   1000.00     0.047      0.36    0.0    0.0
  JK-S                    20.30           3      0.00    300.00    300.00     1.754     27.13    0.0    0.0
  XR-1                    97.91           2      0.00     95.00     95.00     2.679      9.62    0.0    0.0
  XR-2                    93.94           2      0.00     95.00     95.00     2.570      8.78    0.0    0.0
  XR-3                     0.00           1      0.00     95.00     95.00     0.000      0.00    0.0    0.0
  XR-4                     0.00           1      0.00     95.00     95.00     0.000      0.00    0.0    0.0
  

  Analysis begun on:  Tue Jun 20 17:15:41 2023
  Analysis ended on:  Tue Jun 20 17:15:46 2023
  Total elapsed time: 00:00:05