
  OWA STORM WATER MANAGEMENT MODEL - VERSION v5.1.14 (OWA 2022-07-31)
  --------------------------------------------------------------

  WARNING 04: minimum elevation drop used for Conduit WS02004404WS02004405
  WARNING 03: negative offset ignored for Link YS02001904YS02001907
  
  *********************************************************
  NOTE: The summary statistics displayed in this report are
  based on results found at every computational time step,  
  not just on results from each reporting time step.
  *********************************************************
  
  ****************
  Analysis Options
  ****************
  Flow Units ............... LPS
  Process Models:
    Rainfall/Runoff ........ YES
    RDII ................... NO
    Snowmelt ............... NO
    Groundwater ............ NO
    Flow Routing ........... YES
    Ponding Allowed ........ NO
    Water Quality .......... NO
  Infiltration Method ...... HORTON
  Flow Routing Method ...... DYNWAVE
  Surcharge Method ......... EXTRAN
  Starting Date ............ 08/28/2015 08:00:00
  Ending Date .............. 08/28/2015 16:00:00
  Antecedent Dry Days ...... 8.0
  Report Time Step ......... 00:01:00
  Wet Time Step ............ 00:01:00
  Dry Time Step ............ 00:01:00
  Routing Time Step ........ 30.00 sec
  Variable Time Step ....... YES
  Maximum Trials ........... 8
  Number of Threads ........ 4
  Head Tolerance ........... 0.001500 m
  
  
  **************************        Volume         Depth
  Runoff Quantity Continuity     hectare-m            mm
  **************************     ---------       -------
  Initial LID Storage ......         0.072         1.184
  Total Precipitation ......         3.283        54.194
  Evaporation Loss .........         0.000         0.000
  Infiltration Loss ........         0.199         3.280
  Surface Runoff ...........         2.484        41.004
  Final Storage ............         0.673        11.110
  Continuity Error (%) .....        -0.028
  
  
  **************************        Volume        Volume
  Flow Routing Continuity        hectare-m      10^6 ltr
  **************************     ---------     ---------
  Dry Weather Inflow .......         0.630         6.296
  Wet Weather Inflow .......         2.484        24.838
  Groundwater Inflow .......         0.000         0.000
  RDII Inflow ..............         0.000         0.000
  External Inflow ..........         0.105         1.045
  External Outflow .........         2.102        21.018
  Flooding Loss ............         1.052        10.525
  Evaporation Loss .........         0.000         0.000
  Exfiltration Loss ........         0.000         0.000
  Initial Stored Volume ....         0.303         3.031
  Final Stored Volume ......         0.373         3.730
  Continuity Error (%) .....        -0.180
  
  
  *************************
  Highest Continuity Errors
  *************************
  Node YS02001583 (-7.52%)
  Node YS02001884 (5.19%)
  Node HS02004842 (1.88%)
  Node YS02001774 (1.82%)
  Node HS02004817 (1.21%)
  
  
  ***************************
  Time-Step Critical Elements
  ***************************
  Link WS02006280WS02006229 (65.81%)
  Link WS02006238WS02006235 (7.69%)
  Link YS02001791YS02001793 (6.39%)
  Link WS02004404WS02004405 (5.18%)
  Link YS02006556YS02006558 (1.77%)
  
  
  ********************************
  Highest Flow Instability Indexes
  ********************************
  Link WS02006113WS02006111 (25)
  Link WS02006238WS02006235 (18)
  Link WS02004404WS02004405 (17)
  Link WS02006256WS02006235 (17)
  Link WS02006235WS02006234 (15)
  
  
  *************************
  Routing Time Step Summary
  *************************
  Minimum Time Step           :     0.01 sec
  Average Time Step           :     2.89 sec
  Maximum Time Step           :     6.46 sec
  Percent in Steady State     :    -0.00
  Average Iterations per Step :     3.05
  Percent Not Converging      :    10.31
  
  
  ***************************
  Subcatchment Runoff Summary
  ***************************
  
  ------------------------------------------------------------------------------------------------------------------------------
                            Total      Total      Total      Total     Imperv       Perv      Total       Total     Peak  Runoff
                           Precip      Runon       Evap      Infil     Runoff     Runoff     Runoff      Runoff   Runoff   Coeff
  Subcatchment                 mm         mm         mm         mm         mm         mm         mm    10^6 ltr      LPS
  ------------------------------------------------------------------------------------------------------------------------------
  sub0                      54.19       0.00       0.00       0.98      49.15       2.81      51.96        0.04    31.48   0.959
  sub1                      54.19       0.00       0.00       1.48      42.12       3.86      45.98        0.31   192.57   0.848
  sub10                     54.19       0.00       0.00       0.95      39.47       2.58      42.05        0.46   303.84   0.776
  sub11                     54.19       0.00       0.00       0.87      36.69       2.41      39.09        0.45   314.49   0.721
  sub12                     54.19       0.00       0.00       1.52      37.30       4.20      41.50        0.36   268.50   0.766
  sub14                     54.19       0.00       0.00       0.94      34.74       2.59      37.33        0.36   243.06   0.689
  sub15                     54.19       0.00       0.00       4.24      31.23       9.49      40.73        0.70   424.79   0.752
  sub16                     54.19       0.00       0.00       4.51      30.47      10.89      41.35        0.43   288.81   0.763
  sub17                     54.19       0.00       0.00       4.83      33.63      11.41      45.03        0.39   251.09   0.831
  sub2                      54.19       0.00       0.00       6.68      30.78      11.89      42.67        0.40   199.19   0.787
  sub22                     54.19       0.00       0.00       7.51      29.16      15.06      44.22        2.79  1553.50   0.816
  sub23                     54.19       0.00       0.00       5.65      30.02      12.44      42.46        2.03  1229.40   0.784
  sub3                      54.19       0.00       0.00       7.15      30.48      11.26      41.74        0.94   426.36   0.770
  sub4                      54.19       0.00       0.00       1.61      41.46       3.67      45.13        0.94   463.85   0.833
  sub5                      54.19       0.00       0.00       0.84      40.75       2.31      43.05        0.49   312.73   0.794
  sub60                     54.19       0.00       0.00       1.35      35.88       3.67      39.55        0.52   363.01   0.730
  sub61                     54.19       0.00       0.00       2.07      35.85       5.46      41.31        0.76   528.63   0.762
  sub62                     54.19       0.00       0.00       0.92      38.21       2.49      40.71        1.12   725.99   0.751
  sub63                     54.19       0.00       0.00       3.78      30.70       9.09      39.79        0.90   593.67   0.734
  sub64                     54.19       0.00       0.00       1.81      34.96       4.52      39.48        0.95   586.27   0.728
  sub65                     54.19       0.00       0.00       1.67      37.73       4.12      41.85        1.15   682.64   0.772
  sub66                     54.19       0.00       0.00       4.40      29.68       8.06      37.74        1.76   869.25   0.696
  sub67                     54.19       0.00       0.00       0.91      39.18       2.58      41.76        0.78   567.39   0.771
  sub68                     54.19       0.00       0.00       1.59      34.60       4.19      38.80        1.07   722.90   0.716
  sub69                     54.19       0.00       0.00       1.44      36.43       5.01      41.43        1.53   884.98   0.765
  sub7                      54.19       0.00       0.00       1.00      37.24       2.78      40.02        0.13    94.73   0.738
  sub70                     54.19       0.00       0.00       4.82      29.18      10.27      39.44        1.14   503.06   0.728
  sub71                     54.19       0.00       0.00       0.85      34.71       2.25      36.97        0.97   595.06   0.682
  sub72                     54.19       0.00       0.00       0.81      37.49       2.10      39.59        0.54   305.17   0.730
  sub8                      54.19       0.00       0.00       0.98      36.19       2.69      38.88        0.25   170.76   0.717
  sub9                      54.19       0.00       0.00       0.95      35.08       2.61      37.69        0.18   124.43   0.696
  

  ***********************
  LID Performance Summary
  ***********************

  --------------------------------------------------------------------------------------------------------------------
                                         Total      Evap     Infil   Surface    Drain    Initial     Final  Continuity
                                        Inflow      Loss      Loss   Outflow   Outflow   Storage   Storage       Error
  Subcatchment      LID Control             mm        mm        mm        mm        mm        mm        mm           %
  --------------------------------------------------------------------------------------------------------------------
  sub1              GreenRoof            54.19      0.00      0.00      0.00      0.00      7.05     61.27       -0.05
  sub10             GreenRoof            54.19      0.00      0.00      0.00      0.00      7.05     61.27       -0.05
  sub11             GreenRoof            54.19      0.00      0.00      0.00      0.00      7.05     61.27       -0.05
  sub12             GreenRoof            54.19      0.00      0.00      0.00      0.00      7.05     61.27       -0.05
  sub14             GreenRoof            54.19      0.00      0.00      0.00      0.00      7.05     61.27       -0.05
  sub15             GreenRoof            54.19      0.00      0.00      0.00      0.00      7.05     61.27       -0.05
  sub16             GreenRoof            54.19      0.00      0.00      0.00      0.00      7.05     61.27       -0.05
  sub17             GreenRoof            54.19      0.00      0.00      0.00      0.00      7.05     61.27       -0.05
  sub2              GreenRoof            54.19      0.00      0.00      0.00      0.00      7.05     61.27       -0.05
  sub22             GreenRoof            54.19      0.00      0.00      0.00      0.00      7.05     61.27       -0.05
  sub23             GreenRoof            54.19      0.00      0.00      0.00      0.00      7.05     61.27       -0.05
  sub3              GreenRoof            54.19      0.00      0.00      0.00      0.00      7.05     61.27       -0.05
  sub4              GreenRoof            54.19      0.00      0.00      0.00      0.00      7.05     61.27       -0.05
  sub5              GreenRoof            54.19      0.00      0.00      0.00      0.00      7.05     61.27       -0.05
  sub60             GreenRoof            54.19      0.00      0.00      0.00      0.00      7.05     61.27       -0.05
  sub61             GreenRoof            54.19      0.00      0.00      0.00      0.00      7.05     61.27       -0.05
  sub62             GreenRoof            54.19      0.00      0.00      0.00      0.00      7.05     61.27       -0.05
  sub63             GreenRoof            54.19      0.00      0.00      0.00      0.00      7.05     61.27       -0.05
  sub64             GreenRoof            54.19      0.00      0.00      0.00      0.00      7.05     61.27       -0.05
  sub65             GreenRoof            54.19      0.00      0.00      0.00      0.00      7.05     61.27       -0.05
  sub66             GreenRoof            54.19      0.00      0.00      0.00      0.00      7.05     61.27       -0.05
  sub67             GreenRoof            54.19      0.00      0.00      0.00      0.00      7.05     61.27       -0.05
  sub68             GreenRoof            54.19      0.00      0.00      0.00      0.00      7.05     61.27       -0.05
  sub69             GreenRoof            54.19      0.00      0.00      0.00      0.00      7.05     61.27       -0.05
  sub7              GreenRoof            54.19      0.00      0.00      0.00      0.00      7.05     61.27       -0.05
  sub70             GreenRoof            54.19      0.00      0.00      0.00      0.00      7.05     61.27       -0.05
  sub71             GreenRoof            54.19      0.00      0.00      0.00      0.00      7.05     61.27       -0.05
  sub72             GreenRoof            54.19      0.00      0.00      0.00      0.00      7.05     61.27       -0.05
  sub8              GreenRoof            54.19      0.00      0.00      0.00      0.00      7.05     61.27       -0.05
  sub9              GreenRoof            54.19      0.00      0.00      0.00      0.00      7.05     61.27       -0.05
  
  ******************
  Node Depth Summary
  ******************
  
  ---------------------------------------------------------------------------------
                                 Average  Maximum  Maximum  Time of Max    Reported
                                   Depth    Depth      HGL   Occurrence   Max Depth
  Node                 Type       Meters   Meters   Meters  days hr:min      Meters
  ---------------------------------------------------------------------------------
  HS02004478           JUNCTION     0.23     1.67    10.90     0  02:00        1.67
  HS02004479           JUNCTION     0.31     1.74    10.95     0  02:00        1.74
  HS02004480           JUNCTION     0.28     1.74    10.98     0  02:00        1.74
  HS02004770           JUNCTION     0.28     1.42    11.25     0  01:57        1.42
  HS02004777           JUNCTION     0.31     1.48    11.28     0  01:57        1.45
  HS02004785           JUNCTION     0.20     1.49    11.39     0  01:57        1.34
  HS02004788           JUNCTION     0.16     1.42    11.32     0  01:57        1.33
  HS02004792           JUNCTION     0.22     1.60    11.12     0  01:55        1.60
  HS02004799           JUNCTION     0.34     1.76    10.97     0  01:59        1.76
  HS02004802           JUNCTION     0.33     1.85    10.98     0  02:00        1.85
  HS02004807           JUNCTION     0.30     1.92    11.09     0  01:59        1.92
  HS02004817           JUNCTION     0.60     2.43    11.28     0  01:59        2.39
  HS02004824           JUNCTION     0.17     2.01    11.41     0  01:59        1.99
  HS02004830           JUNCTION     0.16     2.03    11.50     0  01:59        1.98
  HS02004837           JUNCTION     0.13     1.96    11.54     0  01:59        1.91
  HS02004842           JUNCTION     0.43     2.22    11.49     0  01:59        2.22
  HS02004848           JUNCTION     0.11     2.05    11.65     0  01:59        1.94
  HS02004852           JUNCTION     0.12     2.12    11.63     0  01:59        1.99
  HS02004856           JUNCTION     0.18     2.07    11.50     0  01:59        2.07
  HS02004862           JUNCTION     0.14     2.00    11.38     0  01:59        2.00
  HS02004870           JUNCTION     0.13     2.10    11.39     0  01:59        1.88
  HS02004876           JUNCTION     0.18     2.13    11.16     0  01:59        1.88
  HS02004881           JUNCTION     0.12     1.88    10.91     0  01:59        1.58
  HS02004901           JUNCTION     0.29     1.42    11.24     0  01:57        1.42
  WS02001211           JUNCTION     0.64     0.81     5.65     0  02:06        0.81
  WS02001212           JUNCTION     0.38     0.57     5.63     0  02:05        0.57
  WS02001213           JUNCTION     0.59     0.86     5.63     0  02:05        0.86
  WS02003059           JUNCTION     0.66     0.93     5.62     0  02:03        0.93
  WS02003060           JUNCTION     0.38     0.68     5.61     0  02:04        0.68
  WS02003066           JUNCTION     0.22     0.45     6.01     0  02:02        0.45
  WS02003067           JUNCTION     0.53     0.89     6.21     0  02:01        0.89
  WS02003069           JUNCTION     0.42     0.77     5.36     0  02:05        0.77
  WS02003072           JUNCTION     0.48     0.81     5.18     0  02:05        0.81
  WS02003073           JUNCTION     0.29     0.51     4.58     0  02:06        0.51
  WS02004138           JUNCTION     0.13     0.14     7.39     0  00:29        0.14
  WS02004139           JUNCTION     0.57     0.74     5.65     0  02:05        0.74
  WS02004401           JUNCTION     0.76     1.83     7.83     0  02:01        1.82
  WS02004402           JUNCTION     0.77     1.77     7.73     0  02:01        1.76
  WS02004403           JUNCTION     0.78     1.69     7.62     0  02:01        1.69
  WS02004404           JUNCTION     0.84     1.71     7.56     0  02:02        1.71
  WS02004405           JUNCTION     0.83     1.66     7.51     0  02:01        1.65
  WS02004406           JUNCTION     0.82     1.55     7.38     0  02:02        1.54
  WS02004407           JUNCTION     0.26     0.90     7.21     0  02:02        0.90
  WS02004409           JUNCTION     0.52     1.37     7.14     0  02:02        1.36
  WS02004410           JUNCTION     0.52     1.28     7.00     0  02:02        1.27
  WS02004411           JUNCTION     0.53     1.19     6.87     0  02:02        1.19
  WS02004412           JUNCTION     0.53     1.10     6.74     0  02:01        1.10
  WS02004413           JUNCTION     0.67     1.14     6.61     0  02:02        1.14
  WS02006109           JUNCTION     0.98     2.64     9.26     0  01:57        2.64
  WS02006110           JUNCTION     0.91     2.38     8.97     0  02:01        2.37
  WS02006111           JUNCTION     0.43     1.70     8.41     0  02:01        1.70
  WS02006112           JUNCTION     0.97     2.33     8.21     0  02:01        2.33
  WS02006113           JUNCTION     0.50     1.80     8.69     0  02:02        1.80
  WS02006115           JUNCTION     0.68     1.92     8.05     0  02:01        1.91
  WS02006116           JUNCTION     0.75     1.91     7.95     0  02:01        1.90
  WS02006228           JUNCTION     1.03     3.03     9.68     0  02:00        3.03
  WS02006229           JUNCTION     1.04     3.25     9.94     0  02:00        3.25
  WS02006230           JUNCTION     0.96     2.65     9.39     0  01:54        2.65
  WS02006231           JUNCTION     0.68     2.19     9.32     0  02:16        2.19
  WS02006232           JUNCTION     0.76     2.18     9.22     0  01:54        2.18
  WS02006234           JUNCTION     0.64     1.96     9.12     0  01:53        1.96
  WS02006235           JUNCTION     0.66     1.97     9.14     0  03:01        1.97
  WS02006238           JUNCTION     0.68     2.01     9.16     0  03:01        2.01
  WS02006239           JUNCTION     0.61     1.98     9.19     0  03:01        1.98
  WS02006240           JUNCTION     0.57     1.84     9.13     0  03:01        1.84
  WS02006242           JUNCTION     0.59     1.55     8.82     0  01:51        1.55
  WS02006243           JUNCTION     0.49     1.48     8.90     0  03:01        1.48
  WS02006245           JUNCTION     0.47     1.46     8.94     0  03:01        1.46
  WS02006247           JUNCTION     0.47     1.37     8.87     0  03:01        1.37
  WS02006248           JUNCTION     0.42     1.10     8.69     0  01:50        1.10
  WS02006249           JUNCTION     0.44     1.09     8.69     0  01:50        1.09
  WS02006251           JUNCTION     0.54     2.21     9.88     0  01:59        2.09
  WS02006252           JUNCTION     0.34     1.50     9.74     0  00:00        1.50
  WS02006253           JUNCTION     0.61     2.96    10.60     0  01:59        2.84
  WS02006256           JUNCTION     1.02     2.35     9.28     0  00:00        2.35
  WS02006280           JUNCTION     0.31     1.80    10.07     0  02:00        1.80
  WS02006284           JUNCTION     0.57     2.04    10.44     0  02:00        2.04
  WS02006287           JUNCTION     0.30     1.84    10.79     0  02:00        1.84
  WSF200               JUNCTION     0.22     0.52     5.75     0  02:04        0.52
  YS02001580           JUNCTION     0.08     1.05     9.59     0  01:57        0.77
  YS02001583           JUNCTION     0.11     1.12     9.61     0  01:57        0.82
  YS02001586           JUNCTION     0.18     1.13     9.30     0  01:56        1.13
  YS02001590           JUNCTION     0.28     1.40     9.26     0  01:57        1.38
  YS02001593           JUNCTION     0.21     1.36     9.22     0  01:55        1.33
  YS02001596           JUNCTION     0.29     1.70     9.12     0  01:55        1.65
  YS02001600           JUNCTION     0.36     1.87     9.00     0  01:57        1.86
  YS02001601           JUNCTION     0.55     2.06     8.90     0  01:55        2.06
  YS02001602           JUNCTION     0.47     1.87     8.77     0  01:57        1.87
  YS02001605           JUNCTION     0.43     1.78     8.68     0  02:16        1.78
  YS02001607           JUNCTION     0.42     1.65     8.49     0  02:12        1.64
  YS02001610           JUNCTION     0.47     1.68     8.48     0  01:57        1.68
  YS02001613           JUNCTION     0.42     1.66     8.50     0  01:57        1.66
  YS02001616           JUNCTION     0.36     1.60     8.51     0  01:59        1.59
  YS02001619           JUNCTION     0.33     1.59     8.52     0  02:00        1.59
  YS02001622           JUNCTION     0.32     1.57     8.47     0  01:59        1.56
  YS02001625           JUNCTION     0.58     1.78     8.38     0  01:57        1.78
  YS02001629           JUNCTION     0.44     1.85     8.40     0  01:57        1.85
  YS02001633           JUNCTION     0.52     2.06     8.51     0  02:01        2.06
  YS02001641           JUNCTION     0.50     2.00     8.43     0  02:01        2.00
  YS02001644           JUNCTION     0.49     1.92     8.35     0  02:00        1.92
  YS02001647           JUNCTION     0.28     1.76     8.37     0  02:01        1.69
  YS02001649           JUNCTION     0.32     1.96     8.35     0  02:01        1.86
  YS02001652           JUNCTION     0.21     1.87     8.47     0  02:01        1.68
  YS02001655           JUNCTION     0.16     1.83     8.68     0  02:01        1.45
  YS02001658           JUNCTION     0.11     1.81     8.95     0  02:01        1.19
  YS02001661           JUNCTION     0.14     1.33     8.73     0  02:02        0.95
  YS02001664           JUNCTION     0.06     0.58     8.51     0  02:02        0.58
  YS02001745           JUNCTION     0.05     0.82     8.33     0  02:01        0.74
  YS02001748           JUNCTION     0.10     1.75     8.83     0  02:01        1.15
  YS02001751           JUNCTION     0.13     1.70     8.58     0  02:01        1.31
  YS02001754           JUNCTION     0.18     1.81     8.42     0  02:01        1.56
  YS02001757           JUNCTION     0.33     2.02     8.28     0  02:01        1.88
  YS02001759           JUNCTION     0.28     1.98     8.34     0  02:01        1.85
  YS02001762           JUNCTION     0.27     1.99     8.39     0  02:01        1.85
  YS02001765           JUNCTION     0.25     1.97     8.42     0  02:01        1.89
  YS02001767           JUNCTION     0.25     1.93     8.42     0  02:01        1.91
  YS02001770           JUNCTION     0.26     1.95     8.44     0  02:01        1.93
  YS02001774           JUNCTION     0.33     2.00     8.42     0  02:01        1.98
  YS02001779           JUNCTION     0.16     1.68     8.37     0  02:00        1.68
  YS02001783           JUNCTION     0.23     1.31     7.45     0  02:00        1.21
  YS02001784           JUNCTION     0.25     1.18     7.25     0  02:00        1.11
  YS02001786           JUNCTION     0.21     0.92     6.95     0  02:00        0.86
  YS02001788           JUNCTION     0.15     0.62     6.60     0  02:00        0.62
  YS02001790           JUNCTION     0.18     0.72     6.36     0  02:02        0.72
  YS02001791           JUNCTION     0.12     0.44     5.91     0  02:01        0.43
  YS02001793           JUNCTION     0.06     0.30     5.13     0  02:02        0.26
  YS02001882           JUNCTION     0.29     1.69     8.40     0  02:00        1.63
  YS02001884           JUNCTION     0.38     1.78     8.39     0  02:00        1.73
  YS02001887           JUNCTION     0.45     1.83     8.37     0  02:00        1.81
  YS02001890           JUNCTION     0.48     1.81     8.32     0  02:00        1.81
  YS02001895           JUNCTION     0.26     1.57     8.32     0  02:00        1.55
  YS02001898           JUNCTION     0.27     1.58     8.32     0  02:00        1.56
  YS02001901           JUNCTION     0.38     1.69     8.30     0  02:00        1.66
  YS02001904           JUNCTION     0.36     1.64     8.27     0  02:00        1.63
  YS02001907           JUNCTION     0.67     1.96     8.25     0  02:00        1.96
  YS02001910           JUNCTION     0.47     2.04     8.54     0  02:00        2.04
  YS02001915           JUNCTION     0.29     1.97     8.68     0  02:00        1.97
  YS02001918           JUNCTION     0.14     1.81     8.88     0  02:00        1.81
  YS02001920           JUNCTION     0.22     2.14     9.15     0  02:00        1.77
  YS02001923           JUNCTION     0.10     2.03     9.29     0  02:00        1.45
  YS02001926           JUNCTION     0.15     1.90     9.35     0  02:00        1.26
  YS02001929           JUNCTION     0.08     1.78     9.47     0  02:00        1.07
  YS02006553           JUNCTION     0.67     1.99     8.27     0  02:00        1.97
  YS02006556           JUNCTION     0.65     1.98     8.29     0  02:00        1.94
  YS02006558           JUNCTION     0.69     2.02     8.29     0  02:00        1.98
  YS02006561           JUNCTION     0.14     1.01     7.67     0  02:00        0.88
  YS02163301           JUNCTION     0.47     1.94     8.45     0  02:01        1.94
  YS02163601           JUNCTION     0.56     2.08     8.48     0  02:01        2.08
  YS02164001           JUNCTION     0.49     2.02     8.48     0  02:01        2.02
  YSB1154              JUNCTION     0.45     1.89    10.94     0  02:00        1.89
  YSB1171              JUNCTION     0.59     1.95    10.85     0  01:57        1.95
  YSB1174              JUNCTION     0.40     1.79    10.90     0  02:01        1.79
  YSB6556              JUNCTION     0.35     1.74    10.91     0  01:57        1.73
  CC-1                 OUTFALL      0.00     0.00     0.00     0  00:00        0.00
  CC-2                 OUTFALL      0.00     0.00     0.00     0  00:00        0.00
  JK-1                 OUTFALL      0.00     0.00     0.00     0  00:00        0.00
  JK-2                 OUTFALL      0.00     0.00     0.00     0  00:00        0.00
  WSC                  OUTFALL      0.29     0.51     1.18     0  02:07        0.51
  CC-storage           STORAGE      0.78     1.52     7.02     0  02:22        1.52
  JK-storage           STORAGE      2.18     4.22     5.02     0  02:01        4.20
  XR-storage           STORAGE      7.86     9.26     7.26     0  08:00        9.26
  
  
  *******************
  Node Inflow Summary
  *******************
  
  -------------------------------------------------------------------------------------------------
                                  Maximum  Maximum                  Lateral       Total        Flow
                                  Lateral    Total  Time of Max      Inflow      Inflow     Balance
                                   Inflow   Inflow   Occurrence      Volume      Volume       Error
  Node                 Type           LPS      LPS  days hr:min    10^6 ltr    10^6 ltr     Percent
  -------------------------------------------------------------------------------------------------
  HS02004478           JUNCTION      0.00  2268.51     0  02:02           0        7.28      -0.009
  HS02004479           JUNCTION      0.00   494.16     0  01:59           0       0.689       0.116
  HS02004480           JUNCTION      0.00  2136.60     0  01:58           0        5.62       0.044
  HS02004770           JUNCTION   1229.40  1229.40     0  02:02        2.03        2.24       0.134
  HS02004777           JUNCTION      0.03   769.59     0  01:57    0.000864        1.67       0.302
  HS02004785           JUNCTION      0.15   785.24     0  01:56     0.00432        1.67       0.022
  HS02004788           JUNCTION    426.46   856.80     0  01:57       0.749        2.42      -0.027
  HS02004792           JUNCTION   1553.78  2300.60     0  02:02         2.8        5.22       0.005
  HS02004799           JUNCTION    243.06  1788.40     0  01:57       0.355        4.96       0.056
  HS02004802           JUNCTION      0.00   893.42     0  02:02           0        1.69       0.233
  HS02004807           JUNCTION    314.49   893.56     0  02:02       0.454        1.73       0.237
  HS02004817           JUNCTION      0.60   592.50     0  02:03      0.0173        1.34       1.230
  HS02004824           JUNCTION    463.90   678.58     0  01:58       0.943        1.51       0.027
  HS02004830           JUNCTION      0.15   690.41     0  01:57     0.00432       0.748       0.182
  HS02004837           JUNCTION    310.19   872.54     0  01:57       0.647        1.04       0.089
  HS02004842           JUNCTION      0.00   873.68     0  01:58           0       0.693       1.917
  HS02004848           JUNCTION    426.36  1129.13     0  01:59        0.94        1.46       0.030
  HS02004852           JUNCTION      0.00  1119.82     0  01:59           0        1.31       0.004
  HS02004856           JUNCTION    124.43  1226.63     0  01:59       0.181        1.49       0.051
  HS02004862           JUNCTION    199.39  1322.07     0  01:59       0.403        1.89       0.001
  HS02004870           JUNCTION    170.76  1391.05     0  01:59       0.248        2.14      -0.023
  HS02004876           JUNCTION    192.57  1393.21     0  02:00       0.306        2.44       0.034
  HS02004881           JUNCTION     94.73  1482.83     0  02:00       0.135        2.58       0.023
  HS02004901           JUNCTION    288.81   510.35     0  02:03       0.433       0.642       0.280
  WS02001211           JUNCTION      7.35   203.92     0  03:06       0.212        5.44       0.612
  WS02001212           JUNCTION      0.00   208.91     0  03:06           0        5.41       0.290
  WS02001213           JUNCTION      0.00   211.10     0  03:07           0        5.39       0.331
  WS02003059           JUNCTION      0.00   214.74     0  03:05           0        5.38       0.594
  WS02003060           JUNCTION     16.53  1489.83     0  02:03       0.476        12.9       0.113
  WS02003066           JUNCTION      0.00  1287.41     0  02:02           0        7.11       0.020
  WS02003067           JUNCTION      0.00  1287.04     0  02:02           0        7.11       0.060
  WS02003069           JUNCTION      0.32  1488.66     0  02:04     0.00922        12.9       0.119
  WS02003072           JUNCTION      0.00  1488.33     0  02:05           0        12.9       0.160
  WS02003073           JUNCTION      1.82  1490.21     0  02:05      0.0524        12.9       0.167
  WS02004138           JUNCTION      0.00   380.00     0  00:00           0        5.25       0.052
  WS02004139           JUNCTION      0.32   190.95     0  00:29     0.00924        5.26       0.509
  WS02004401           JUNCTION      0.00  1286.55     0  02:01           0        7.21       0.142
  WS02004402           JUNCTION      0.00  1286.54     0  02:02           0         7.2       0.143
  WS02004403           JUNCTION      0.00  1287.33     0  02:02           0        7.19       0.141
  WS02004404           JUNCTION      0.16  1287.52     0  02:02     0.00467        7.19       0.117
  WS02004405           JUNCTION      0.04  1288.27     0  02:02      0.0011        7.18       0.170
  WS02004406           JUNCTION      0.00  1288.23     0  02:01           0        7.17       0.293
  WS02004407           JUNCTION      0.00  1288.53     0  02:01           0        7.15       0.020
  WS02004409           JUNCTION      0.00  1286.86     0  02:02           0        7.14       0.034
  WS02004410           JUNCTION      0.00  1287.33     0  02:02           0        7.14       0.061
  WS02004411           JUNCTION      0.00  1287.21     0  02:02           0        7.14       0.081
  WS02004412           JUNCTION      0.00  1287.08     0  02:02           0        7.13       0.108
  WS02004413           JUNCTION      0.00  1287.08     0  02:02           0        7.12       0.187
  WS02006109           JUNCTION      1.23  1272.27     0  02:02      0.0354        7.02       0.131
  WS02006110           JUNCTION      0.00  1119.11     0  02:15           0        6.87       0.110
  WS02006111           JUNCTION      0.00  1119.23     0  02:15           0        6.86       0.009
  WS02006112           JUNCTION    251.09  1286.87     0  02:02       0.386        7.24       0.273
  WS02006113           JUNCTION      0.00  1118.89     0  02:15           0        6.86       0.023
  WS02006115           JUNCTION      0.00  1286.72     0  02:02           0        7.22       0.089
  WS02006116           JUNCTION      0.00  1286.63     0  02:02           0        7.22       0.062
  WS02006228           JUNCTION      0.00  1271.75     0  02:02           0        6.99       0.064
  WS02006229           JUNCTION      0.00  2270.53     0  02:02           0         8.8       0.071
  WS02006230           JUNCTION     10.28  1008.97     0  02:02       0.296        3.37       0.232
  WS02006231           JUNCTION      0.00   453.29     0  02:00           0         2.4      -0.148
  WS02006232           JUNCTION      0.00   453.42     0  02:00           0        2.38       0.179
  WS02006234           JUNCTION      0.00   453.09     0  02:00           0        2.35      -0.169
  WS02006235           JUNCTION      0.00   415.29     0  02:22           0        2.42       0.137
  WS02006238           JUNCTION      0.00   416.12     0  02:22           0        2.08      -0.166
  WS02006239           JUNCTION      0.00   415.44     0  02:22           0        2.05      -0.170
  WS02006240           JUNCTION      0.00   415.32     0  02:22           0        2.03      -0.011
  WS02006242           JUNCTION      0.00   415.29     0  02:22           0        2.01      -0.027
  WS02006243           JUNCTION      0.00   395.85     0  03:17           0        1.67      -0.062
  WS02006245           JUNCTION      0.00   395.83     0  03:17           0        1.67       0.430
  WS02006247           JUNCTION      0.00   395.91     0  03:17           0        1.66       0.005
  WS02006248           JUNCTION      0.00   396.14     0  03:17           0        1.86       0.041
  WS02006249           JUNCTION      0.00  1338.58     0  02:00           0        4.46       0.088
  WS02006251           JUNCTION      0.08  1517.34     0  02:00     0.00222        4.49      -0.017
  WS02006252           JUNCTION      0.00   581.93     0  02:00           0        2.14      -0.044
  WS02006253           JUNCTION     31.48  1514.66     0  02:00      0.0421        2.63      -0.016
  WS02006256           JUNCTION      0.00   300.00     0  00:00           0        1.47      -0.153
  WS02006280           JUNCTION      0.00  2270.59     0  02:02           0        7.26       0.007
  WS02006284           JUNCTION      0.10  2268.96     0  02:02     0.00275        7.27       0.012
  WS02006287           JUNCTION      0.00  2269.80     0  02:02           0        7.26       0.011
  WSF200               JUNCTION      0.00  1287.39     0  02:02           0         7.1       0.009
  YS02001580           JUNCTION      0.00   120.01     0  01:57           0     0.00426       0.668
  YS02001583           JUNCTION      0.00   198.16     0  01:57           0      0.0148      -6.998
  YS02001586           JUNCTION    503.06   503.06     0  02:04        1.14        1.15       0.123
  YS02001590           JUNCTION      0.00   317.86     0  02:14           0        1.02      -0.046
  YS02001593           JUNCTION      0.00   318.00     0  02:04           0        1.03       0.012
  YS02001596           JUNCTION      0.00   317.93     0  02:08           0        1.03      -0.004
  YS02001600           JUNCTION      0.00   317.94     0  02:07           0        1.03       0.001
  YS02001601           JUNCTION    884.98  1202.39     0  02:03        1.53        2.56       0.030
  YS02001602           JUNCTION      0.00   532.21     0  01:56           0        1.85       0.016
  YS02001605           JUNCTION      0.00   529.85     0  01:56           0        1.78       0.009
  YS02001607           JUNCTION      0.00   528.48     0  01:57           0        1.78       0.107
  YS02001610           JUNCTION      0.00   533.04     0  01:56           0        1.78       0.127
  YS02001613           JUNCTION      0.00   537.81     0  01:56           0        1.54       0.094
  YS02001616           JUNCTION      0.00   540.93     0  01:56           0        1.54       0.022
  YS02001619           JUNCTION    869.25   942.12     0  01:59        1.76         3.3       0.005
  YS02001622           JUNCTION      0.00   942.65     0  01:59           0        3.29      -0.007
  YS02001625           JUNCTION      0.00   966.63     0  02:04           0        3.31       0.267
  YS02001629           JUNCTION      0.00   940.31     0  01:59           0        2.86       0.016
  YS02001633           JUNCTION    682.84  1418.54     0  01:59        1.16        3.99       0.079
  YS02001641           JUNCTION      0.00  1416.66     0  01:59           0        3.97       0.068
  YS02001644           JUNCTION    586.30  1832.62     0  01:59       0.949        4.92       0.066
  YS02001647           JUNCTION      0.00  1838.07     0  01:59           0        4.87       0.004
  YS02001649           JUNCTION      0.00  2106.61     0  01:59           0        5.78       0.009
  YS02001652           JUNCTION      0.00   739.80     0  02:02           0       0.909      -0.113
  YS02001655           JUNCTION      0.15   738.55     0  02:02     0.00443       0.909      -0.038
  YS02001658           JUNCTION      0.00   736.88     0  02:02           0       0.904      -0.084
  YS02001661           JUNCTION      0.00   779.62     0  02:02           0       0.904      -0.016
  YS02001664           JUNCTION    593.67   593.67     0  02:02       0.903       0.903      -0.010
  YS02001745           JUNCTION    363.01   478.67     0  02:01        0.52       0.521       0.290
  YS02001748           JUNCTION      0.04   564.36     0  02:01      0.0013       0.523      -0.504
  YS02001751           JUNCTION      0.01   472.70     0  02:02    0.000317       0.533       0.144
  YS02001754           JUNCTION      0.26   474.14     0  02:02     0.00749       0.548      -0.269
  YS02001757           JUNCTION      0.00  3280.70     0  02:02           0        8.21       0.036
  YS02001759           JUNCTION    528.67  1266.06     0  02:01       0.759        1.89      -0.006
  YS02001762           JUNCTION      0.00   739.36     0  02:01           0        1.13       0.004
  YS02001765           JUNCTION      0.00   736.48     0  02:01           0        1.13       0.013
  YS02001767           JUNCTION      0.54   733.33     0  02:01      0.0154        1.13      -0.018
  YS02001770           JUNCTION    726.14   726.14     0  02:02        1.12        1.16       0.004
  YS02001774           JUNCTION      0.00   442.94     0  02:00           0      0.0652       1.851
  YS02001779           JUNCTION      0.01   459.22     0  02:00    0.000144      0.0224      -4.812
  YS02001783           JUNCTION      0.00  1156.57     0  02:01           0        3.03       0.008
  YS02001784           JUNCTION      1.06  1157.34     0  02:01      0.0305        3.06       0.016
  YS02001786           JUNCTION      0.06  1156.86     0  02:01     0.00162        3.06       0.021
  YS02001788           JUNCTION      0.07  1158.20     0  02:01     0.00204        3.06       0.010
  YS02001790           JUNCTION      0.15  1171.34     0  02:00     0.00446        3.07       0.021
  YS02001791           JUNCTION      0.00  1275.01     0  02:01           0        3.07      -0.020
  YS02001793           JUNCTION      0.00  1246.82     0  02:01           0        3.07       0.008
  YS02001882           JUNCTION      0.00    44.69     0  01:58           0      0.0128       5.220
  YS02001884           JUNCTION      0.00    86.56     0  01:58           0      0.0484       5.470
  YS02001887           JUNCTION    567.84   569.94     0  02:01        0.79       0.823       0.547
  YS02001890           JUNCTION      0.00   570.46     0  02:01           0       0.782       0.661
  YS02001895           JUNCTION      0.00   522.07     0  01:59           0       0.768       0.202
  YS02001898           JUNCTION      0.00   525.96     0  01:59           0       0.767       0.010
  YS02001901           JUNCTION      0.00   531.08     0  01:59           0       0.769       0.424
  YS02001904           JUNCTION      0.00   533.46     0  01:59           0       0.774       0.355
  YS02001907           JUNCTION      0.00  1544.98     0  02:01           0        2.36       0.762
  YS02001910           JUNCTION      0.00  1042.27     0  02:01           0        1.59       0.456
  YS02001915           JUNCTION    595.08  1042.08     0  02:01       0.967        1.64       0.083
  YS02001918           JUNCTION      0.00   497.16     0  01:59           0       0.702       0.038
  YS02001920           JUNCTION      2.87   472.72     0  02:00      0.0827       0.683       0.055
  YS02001923           JUNCTION      0.04   520.41     0  01:59     0.00109       0.584      -0.112
  YS02001926           JUNCTION      0.05   816.29     0  02:00      0.0015       0.565      -0.264
  YS02001929           JUNCTION    305.17   709.10     0  02:00       0.544       0.549      -0.145
  YS02006553           JUNCTION      0.00   790.32     0  02:13           0        1.99       0.605
  YS02006556           JUNCTION      0.00   790.05     0  02:13           0        1.99       0.401
  YS02006558           JUNCTION    723.78  1159.72     0  02:00        1.09        3.06       0.122
  YS02006561           JUNCTION      0.00  1158.79     0  02:00           0        3.03      -0.005
  YS02163301           JUNCTION      0.00   938.36     0  01:59           0        2.85       0.045
  YS02163601           JUNCTION      0.11  1416.20     0  01:59     0.00317        3.97       0.117
  YS02164001           JUNCTION      0.00  1415.11     0  01:59           0        3.97       0.050
  YSB1154              JUNCTION    312.73   312.73     0  02:02       0.488       0.489       0.303
  YSB1171              JUNCTION      0.00   576.68     0  02:02           0       0.858       0.746
  YSB1174              JUNCTION    268.50   268.50     0  02:01       0.363       0.363       0.354
  YSB6556              JUNCTION      0.00   312.77     0  02:02           0       0.489       0.247
  CC-1                 OUTFALL       0.00   683.00     0  00:00           0        3.36       0.000
  CC-2                 OUTFALL       0.00   683.00     0  00:00           0        3.15       0.000
  JK-1                 OUTFALL       0.00  1000.00     0  00:00           0        1.54       0.000
  JK-2                 OUTFALL       0.00  1000.00     0  00:00           0      0.0484       0.000
  WSC                  OUTFALL       0.00  1490.28     0  02:07           0        12.9       0.000
  CC-storage           STORAGE       0.00  3279.96     0  02:02           0        10.4      -0.182
  JK-storage           STORAGE       0.00  1230.64     0  02:10           0        3.22       0.042
  XR-storage           STORAGE     200.00   200.00     0  00:00        5.76        6.36       0.001
  
  
  **********************
  Node Surcharge Summary
  **********************
  
  Surcharging occurs when water rises above the top of the highest conduit.
  ---------------------------------------------------------------------
                                               Max. Height   Min. Depth
                                   Hours       Above Crown    Below Rim
  Node                 Type      Surcharged         Meters       Meters
  ---------------------------------------------------------------------
  HS02004478           JUNCTION        0.36          0.748        0.192
  HS02004479           JUNCTION        0.48          0.943        0.107
  HS02004480           JUNCTION        0.52          1.027        0.073
  HS02004770           JUNCTION        0.43          0.720        0.000
  HS02004777           JUNCTION        0.44          0.780        0.000
  HS02004785           JUNCTION        0.39          0.790        0.000
  HS02004788           JUNCTION        0.38          0.720        0.000
  HS02004792           JUNCTION        0.49          0.900        0.000
  HS02004799           JUNCTION        0.59          1.060        0.000
  HS02004802           JUNCTION        0.52          1.144        0.066
  HS02004807           JUNCTION        0.50          1.220        0.000
  HS02004817           JUNCTION        1.02          1.733        0.007
  HS02004824           JUNCTION        0.38          1.310        0.000
  HS02004830           JUNCTION        0.35          1.327        0.003
  HS02004837           JUNCTION        0.31          1.258        0.082
  HS02004842           JUNCTION        0.44          1.520        0.000
  HS02004848           JUNCTION        0.28          1.351        0.019
  HS02004852           JUNCTION        0.31          1.415        0.005
  HS02004856           JUNCTION        0.29          1.300        0.000
  HS02004862           JUNCTION        0.32          1.300        0.000
  HS02004870           JUNCTION        0.34          1.400        0.000
  HS02004876           JUNCTION        0.41          1.429        0.131
  HS02004881           JUNCTION        0.39          1.180        0.270
  HS02004901           JUNCTION        0.44          0.720        0.000
  WS02004401           JUNCTION        1.37          0.826        0.834
  WS02004402           JUNCTION        1.39          0.773        0.967
  WS02004403           JUNCTION        1.41          0.692        1.338
  WS02004404           JUNCTION        1.54          0.706        2.074
  WS02004405           JUNCTION        1.53          0.657        2.143
  WS02004406           JUNCTION        1.50          0.548        1.902
  WS02004409           JUNCTION        0.80          0.369        1.991
  WS02004410           JUNCTION        0.76          0.285        2.255
  WS02004411           JUNCTION        0.71          0.194        2.336
  WS02004412           JUNCTION        0.63          0.097        2.213
  WS02004413           JUNCTION        1.16          0.140        2.060
  WS02006109           JUNCTION        1.74          1.820        0.000
  WS02006110           JUNCTION        1.60          1.471        0.379
  WS02006111           JUNCTION        1.06          0.893        0.977
  WS02006112           JUNCTION        1.64          1.327        0.353
  WS02006113           JUNCTION        1.09          0.998        0.932
  WS02006115           JUNCTION        1.28          0.905        1.345
  WS02006116           JUNCTION        1.29          0.847        1.443
  WS02006228           JUNCTION        1.74          2.200        0.000
  WS02006229           JUNCTION        0.74          1.070        0.000
  WS02006230           JUNCTION        1.53          1.570        0.000
  WS02006231           JUNCTION        1.54          1.483        0.047
  WS02006232           JUNCTION        1.61          1.480        0.000
  WS02006234           JUNCTION        1.54          1.240        0.000
  WS02006235           JUNCTION        1.56          1.263        0.027
  WS02006238           JUNCTION        1.56          1.291        0.139
  WS02006239           JUNCTION        1.54          1.238        0.052
  WS02006240           JUNCTION        1.53          1.127        0.263
  WS02006242           JUNCTION        1.53          0.820        0.000
  WS02006243           JUNCTION        1.50          0.770        0.000
  WS02006245           JUNCTION        1.49          0.746        0.104
  WS02006247           JUNCTION        1.49          0.662        0.098
  WS02006248           JUNCTION        1.47          0.380        0.000
  WS02006249           JUNCTION        1.47          0.390        0.000
  WS02006251           JUNCTION        1.44          1.180        0.000
  WS02006252           JUNCTION        1.59          1.100        0.000
  WS02006253           JUNCTION        1.44          1.920        0.560
  WS02006256           JUNCTION        4.19          2.050        0.000
  WS02006280           JUNCTION        0.61          0.752        0.028
  WS02006284           JUNCTION        0.54          0.761        0.039
  WS02006287           JUNCTION        0.45          0.839        0.051
  YS02001580           JUNCTION        0.40          0.450        0.000
  YS02001583           JUNCTION        0.41          0.476        0.024
  YS02001586           JUNCTION        0.51          0.510        0.000
  YS02001590           JUNCTION        0.58          0.750        0.000
  YS02001593           JUNCTION        0.58          0.736        0.104
  YS02001596           JUNCTION        0.67          0.975        0.095
  YS02001600           JUNCTION        0.80          1.190        0.000
  YS02001601           JUNCTION        1.16          1.440        0.000
  YS02001602           JUNCTION        1.03          1.270        0.000
  YS02001605           JUNCTION        0.97          1.177        0.003
  YS02001607           JUNCTION        0.55          0.646        0.034
  YS02001610           JUNCTION        0.57          0.680        0.000
  YS02001613           JUNCTION        0.54          0.661        0.039
  YS02001616           JUNCTION        0.51          0.599        0.011
  YS02001619           JUNCTION        0.49          0.591        0.019
  YS02001622           JUNCTION        0.49          0.566        0.054
  YS02001625           JUNCTION        0.65          0.780        0.000
  YS02001629           JUNCTION        0.45          0.470        0.000
  YS02001633           JUNCTION        0.66          1.035        0.025
  YS02001641           JUNCTION        0.60          0.997        0.103
  YS02001644           JUNCTION        0.58          0.920        0.000
  YS02001647           JUNCTION        0.40          0.761        0.139
  YS02001649           JUNCTION        0.49          0.960        0.090
  YS02001652           JUNCTION        0.33          0.841        0.289
  YS02001655           JUNCTION        0.21          0.831        0.369
  YS02001658           JUNCTION        0.07          0.805        0.495
  YS02001661           JUNCTION        0.01          0.257        1.133
  YS02001748           JUNCTION        0.01          0.669        0.521
  YS02001751           JUNCTION        0.13          0.703        0.497
  YS02001754           JUNCTION        0.25          0.758        0.392
  YS02001757           JUNCTION        0.54          1.017        0.193
  YS02001759           JUNCTION        0.46          0.980        0.230
  YS02001762           JUNCTION        0.43          0.994        0.156
  YS02001765           JUNCTION        0.39          0.967        0.133
  YS02001767           JUNCTION        0.36          0.934        0.096
  YS02001770           JUNCTION        0.34          0.917        0.003
  YS02001774           JUNCTION        0.41          0.995        0.055
  YS02001779           JUNCTION        0.25          0.680        0.000
  YS02001783           JUNCTION        0.35          0.512        1.088
  YS02001784           JUNCTION        0.33          0.378        1.112
  YS02001786           JUNCTION        0.24          0.115        1.315
  YS02001882           JUNCTION        0.31          0.689        0.141
  YS02001884           JUNCTION        0.32          0.717        0.153
  YS02001887           JUNCTION        0.35          0.782        0.168
  YS02001890           JUNCTION        0.36          0.760        0.000
  YS02001895           JUNCTION        0.30          0.575        0.175
  YS02001898           JUNCTION        0.29          0.551        0.189
  YS02001901           JUNCTION        0.33          0.688        0.182
  YS02001904           JUNCTION        0.33          0.645        0.205
  YS02001907           JUNCTION        0.53          0.950        0.000
  YS02001910           JUNCTION        0.38          1.036        0.064
  YS02001915           JUNCTION        0.30          0.966        0.034
  YS02001918           JUNCTION        0.23          0.810        0.000
  YS02001920           JUNCTION        0.24          1.140        0.000
  YS02001923           JUNCTION        0.01          0.820        0.000
  YS02001926           JUNCTION        0.01          0.900        0.000
  YS02001929           JUNCTION        0.01          0.780        0.000
  YS02006553           JUNCTION        0.54          0.987        0.203
  YS02006556           JUNCTION        0.45          0.942        0.408
  YS02006558           JUNCTION        0.44          0.925        0.475
  YS02006561           JUNCTION        0.20          0.207        0.943
  YS02163301           JUNCTION        0.65          0.936        0.094
  YS02163601           JUNCTION        0.69          1.080        0.000
  YS02164001           JUNCTION        0.61          1.017        0.083
  YSB1154              JUNCTION        0.70          1.187        0.213
  YSB1171              JUNCTION        0.70          1.100        0.000
  YSB1174              JUNCTION        0.62          1.094        0.156
  YSB6556              JUNCTION        0.57          1.045        0.055
  
  
  *********************
  Node Flooding Summary
  *********************
  
  Flooding refers to all water that overflows a node, whether it ponds or not.
  --------------------------------------------------------------------------
                                                             Total   Maximum
                                 Maximum   Time of Max       Flood    Ponded
                        Hours       Rate    Occurrence      Volume     Depth
  Node                 Flooded       LPS   days hr:min    10^6 ltr    Meters
  --------------------------------------------------------------------------
  HS02004770              0.25    704.66      0  02:02       0.357     0.000
  HS02004777              0.01     78.76      0  01:57       0.001     0.000
  HS02004785              0.01    111.50      0  01:57       0.000     0.000
  HS02004788              0.01    284.88      0  01:57       0.002     0.000
  HS02004792              0.26   1157.54      0  02:02       0.616     0.000
  HS02004799              0.07    110.31      0  02:00       0.015     0.000
  HS02004807              0.01     37.12      0  02:00       0.000     0.000
  HS02004824              0.01     10.93      0  01:59       0.000     0.000
  HS02004842              0.01    114.62      0  02:00       0.001     0.000
  HS02004856              0.01    261.47      0  01:59       0.001     0.000
  HS02004862              0.01     96.19      0  01:59       0.001     0.000
  HS02004870              0.01     76.25      0  01:59       0.000     0.000
  HS02004901              0.32    510.35      0  02:03       0.423     0.000
  WS02006109              0.30    237.02      0  02:02       0.148     0.000
  WS02006228              0.01      5.93      0  02:00       0.000     0.000
  WS02006229              0.01      7.42      0  02:00       0.000     0.000
  WS02006230              0.55    556.13      0  02:02       0.691     0.000
  WS02006232              0.12      0.73      0  02:10       0.000     0.000
  WS02006234              0.61    128.46      0  02:05       0.264     0.000
  WS02006242              0.73    137.52      0  02:22       0.328     0.000
  WS02006243              0.01      3.43      0  03:01       0.000     0.000
  WS02006248              0.97    339.07      0  02:16       0.989     0.000
  WS02006249              1.45   1281.91      0  02:00       3.395     0.000
  WS02006251              0.01     62.95      0  01:59       0.000     0.000
  WS02006252              0.34    581.48      0  02:00       0.288     0.000
  WS02006256              1.36    293.19      0  00:00       0.805     0.000
  YS02001580              0.01     93.19      0  01:57       0.000     0.000
  YS02001586              0.31    185.38      0  02:04       0.114     0.000
  YS02001590              0.01      4.18      0  01:57       0.000     0.000
  YS02001600              0.01      3.16      0  01:57       0.000     0.000
  YS02001601              0.45    804.55      0  02:03       0.709     0.000
  YS02001602              0.36     62.02      0  02:14       0.071     0.000
  YS02001610              0.31    364.43      0  02:04       0.239     0.000
  YS02001625              0.28    966.33      0  02:04       0.458     0.000
  YS02001629              0.06    108.27      0  01:57       0.013     0.000
  YS02001644              0.05    348.43      0  02:02       0.035     0.000
  YS02001779              0.03    378.01      0  02:00       0.006     0.000
  YS02001890              0.05     76.05      0  02:01       0.009     0.000
  YS02001907              0.19   1111.98      0  02:01       0.364     0.000
  YS02001918              0.01    240.82      0  02:00       0.003     0.000
  YS02001920              0.01     83.83      0  02:00       0.000     0.000
  YS02001923              0.01    191.97      0  02:00       0.001     0.000
  YS02001926              0.01    532.45      0  02:00       0.003     0.000
  YS02001929              0.01     14.87      0  02:00       0.000     0.000
  YS02163601              0.01      3.16      0  02:01       0.000     0.000
  YSB1171                 0.15    517.30      0  02:02       0.171     0.000
  
  
  **********************
  Storage Volume Summary
  **********************
  
  --------------------------------------------------------------------------------------------------
                         Average     Avg  Evap Exfil       Maximum     Max    Time of Max    Maximum
                          Volume    Pcnt  Pcnt  Pcnt        Volume    Pcnt     Occurrence    Outflow
  Storage Unit           1000 m3    Full  Loss  Loss       1000 m3    Full    days hr:min        LPS
  --------------------------------------------------------------------------------------------------
  CC-storage               2.180      34     0     0         4.250      66       0  02:22    1783.53
  JK-storage               0.110      38     0     0         0.212      73       0  02:01    2300.00
  XR-storage               0.944      66     0     0         1.111      77       0  08:00     380.00
  
  
  ***********************
  Outfall Loading Summary
  ***********************
  
  -----------------------------------------------------------
                         Flow       Avg       Max       Total
                         Freq      Flow      Flow      Volume
  Outfall Node           Pcnt       LPS       LPS    10^6 ltr
  -----------------------------------------------------------
  CC-1                  29.29    683.00    683.00       3.363
  CC-2                  27.65    683.00    683.00       3.151
  JK-1                   9.65   1000.00   1000.00       1.545
  JK-2                   0.21   1000.00   1000.00       0.048
  WSC                   99.94    603.23   1490.28      12.911
  -----------------------------------------------------------
  System                33.35   3969.23   1490.28      21.018
  
  
  ********************
  Link Flow Summary
  ********************
  
  -----------------------------------------------------------------------------
                                 Maximum  Time of Max   Maximum    Max/    Max/
                                  |Flow|   Occurrence   |Veloc|    Full    Full
  Link                 Type          LPS  days hr:min     m/sec    Flow   Depth
  -----------------------------------------------------------------------------
  1                    CONDUIT   1490.28     0  02:07      3.69    0.52    0.51
  HS02004478WS02006287 CONDUIT   2269.80     0  02:02      2.55    0.64    1.00
  HS02004479HS02004480 CONDUIT    493.71     0  01:59      0.71    0.48    1.00
  HS02004480HS02004478 CONDUIT   2140.17     0  01:58      3.06    9.01    1.00
  HS02004770HS02004777 CONDUIT    769.56     0  01:57      1.10    1.41    1.00
  HS02004777HS02004785 CONDUIT    785.09     0  01:56      1.19    0.97    1.00
  HS02004785HS02004788 CONDUIT    636.61     0  01:57      1.36    4.80    1.00
  HS02004788HS02004792 CONDUIT    807.94     0  01:57      1.41    0.53    1.00
  HS02004792HS02004799 CONDUIT   1639.77     0  01:57      2.34    1.00    1.00
  HS02004799HS02004480 CONDUIT   1785.91     0  01:57      2.55    2.26    1.00
  HS02004802HS02004478 CONDUIT    893.39     0  02:02      1.28    0.79    1.00
  HS02004807HS02004802 CONDUIT    893.42     0  02:02      1.28    1.71    1.00
  HS02004817HS02004807 CONDUIT    592.61     0  02:03      0.85    0.35    1.00
  HS02004817HS02004824 CONDUIT    591.90     0  02:03      0.85    0.27    1.00
  HS02004824HS02004830 CONDUIT    690.26     0  01:57      1.02    0.90    1.00
  HS02004830HS02004837 CONDUIT    680.62     0  01:57      1.05    0.68    1.00
  HS02004837HS02004842 CONDUIT    873.68     0  01:58      1.25    0.52    1.00
  HS02004842HS02004848 CONDUIT    872.12     0  01:58      1.38    0.51    1.00
  HS02004848HS02004852 CONDUIT   1119.82     0  01:59      1.65    1.26    1.00
  HS02004852HS02004856 CONDUIT   1126.59     0  01:59      1.61    1.29    1.00
  HS02004856HS02004862 CONDUIT   1168.58     0  01:59      1.71    1.17    1.00
  HS02004862HS02004870 CONDUIT   1248.00     0  01:59      1.94    1.35    1.00
  HS02004870HS02004876 CONDUIT   1225.38     0  02:00      1.87    0.81    1.00
  HS02004876HS02004881 CONDUIT   1395.97     0  02:00      2.35   14.85    1.00
  HS02004881HS02006253 CONDUIT   1485.58     0  02:00      2.76    0.29    1.00
  HS02004901HS02004770 CONDUIT    265.67     0  02:12      0.38    1.00    1.00
  WS02001211WS02001212 CONDUIT    208.91     0  03:06      0.54    0.16    0.69
  WS02001212WS02001213 CONDUIT    211.10     0  03:07      1.04    0.33    0.56
  WS02001213WS02003059 CONDUIT    214.74     0  03:05      0.47    0.35    0.89
  WS02003059WS02003060 CONDUIT    219.55     0  03:31      0.66    0.14    0.81
  WS02003060WS02003069 CONDUIT   1488.34     0  02:04      2.08    0.58    0.61
  WS02003066WSF200     CONDUIT   1287.39     0  02:02      3.30    0.22    0.38
  WS02003067WS02003066 CONDUIT   1287.41     0  02:02      1.99    0.41    0.56
  WS02003069WS02003072 CONDUIT   1488.33     0  02:05      1.89    0.72    0.66
  WS02003072WS02003073 CONDUIT   1488.39     0  02:05      2.04    3.21    0.61
  WS02004138WS02004139 CONDUIT    190.63     0  00:29      2.18    0.04    0.41
  WS02004139WS02001211 CONDUIT    196.57     0  03:06      0.54    0.25    0.60
  WS02004401WS02004402 CONDUIT   1286.54     0  02:02      1.64    1.54    1.00
  WS02004402WS02004403 CONDUIT   1287.33     0  02:02      1.64    1.85    1.00
  WS02004403WS02004404 CONDUIT   1287.36     0  02:02      1.64    0.93    1.00
  WS02004404WS02004405 CONDUIT   1288.23     0  02:02      1.64   12.62    1.00
  WS02004405WS02004406 CONDUIT   1288.23     0  02:01      1.64    2.54    1.00
  WS02004406WS02004407 CONDUIT   1288.53     0  02:01      1.85    0.58    0.95
  WS02004407WS02004409 CONDUIT   1286.86     0  02:02      1.82    0.46    0.95
  WS02004409WS02004410 CONDUIT   1287.33     0  02:02      1.64    1.66    1.00
  WS02004410WS02004411 CONDUIT   1287.21     0  02:02      1.64    1.76    1.00
  WS02004411WS02004412 CONDUIT   1287.08     0  02:02      1.64    1.83    1.00
  WS02004412WS02004413 CONDUIT   1287.08     0  02:02      1.64    0.86    1.00
  WS02004413WS02003067 CONDUIT   1287.04     0  02:02      2.00    0.55    0.77
  WS02006109WS02006110 CONDUIT   1119.11     0  02:15      2.23    2.15    1.00
  WS02006110WS02006113 CONDUIT   1118.89     0  02:15      2.23    1.02    1.00
  WS02006111WS02006112 CONDUIT   1119.19     0  02:15      2.23    0.53    1.00
  WS02006112WS02006115 CONDUIT   1286.72     0  02:02      1.64    0.76    1.00
  WS02006113WS02006111 CONDUIT   1119.23     0  02:15      2.63    1.34    1.00
  WS02006115WS02006116 CONDUIT   1286.63     0  02:02      1.64    1.65    1.00
  WS02006116WS02004401 CONDUIT   1286.55     0  02:01      1.64    1.77    1.00
  WS02006228WS02006109 CONDUIT   1271.04     0  02:02      2.53    5.55    1.00
  WS02006229WS02006228 CONDUIT   1271.75     0  02:02      2.53    4.21    1.00
  WS02006230WS02006229 CONDUIT    998.69     0  02:02      2.60   22.23    1.00
  WS02006231WS02006230 CONDUIT    453.29     0  02:00      1.34    6.88    1.00
  WS02006232WS02006231 CONDUIT    453.42     0  02:00      1.18    0.95    1.00
  WS02006234WS02006232 CONDUIT    453.09     0  02:00      1.41    0.92    1.00
  WS02006235WS02006234 CONDUIT    396.45     0  03:17      1.23    4.18    1.00
  WS02006238WS02006235 CONDUIT    416.12     0  02:22      1.45    0.93    1.00
  WS02006239WS02006238 CONDUIT    415.44     0  02:22      1.12    1.33    1.00
  WS02006240WS02006239 CONDUIT    415.32     0  02:22      1.26    1.31    1.00
  WS02006242WS02006240 CONDUIT    415.29     0  02:22      1.14    1.65    1.00
  WS02006243WS02006242 CONDUIT    395.84     0  03:17      1.34    0.85    1.00
  WS02006245WS02006243 CONDUIT    395.85     0  03:17      1.39    1.17    1.00
  WS02006247WS02006245 CONDUIT    395.83     0  03:17      1.37    3.14    1.00
  WS02006248WS02006247 CONDUIT    395.91     0  03:17      1.38    0.86    1.00
  WS02006249WS02006248 CONDUIT    396.14     0  03:17      1.38    2.17    1.00
  WS02006251WS02006249 CONDUIT   1338.58     0  02:00      3.48    3.86    1.00
  WS02006252WS02006251 CONDUIT    409.22     0  02:28     24.89    1.50    1.00
  WS02006253WS02006251 CONDUIT   1517.26     0  02:00      3.94    4.55    1.00
  WS02006256WS02006235 CONDUIT    288.93     0  00:00      4.23    3.06    1.00
  WS02006280WS02006229 CONDUIT   2270.53     0  02:02      4.58    0.48    1.00
  WS02006284WS02006280 CONDUIT   2270.59     0  02:02      2.96    0.95    1.00
  WS02006287WS02006284 CONDUIT   2268.86     0  02:02      2.89    1.05    1.00
  WSF200WS02003060     CONDUIT   1287.49     0  02:03      2.38    0.29    0.50
  YS02001580YS02001583 CONDUIT    120.01     0  01:57      0.76    0.47    1.00
  YS02001583YS02001586 CONDUIT    182.59     0  01:57      0.79    0.28    1.00
  YS02001586YS02001590 CONDUIT    317.86     0  02:14      1.27    0.56    1.00
  YS02001590YS02001593 CONDUIT    318.00     0  02:04      1.12    2.00    1.00
  YS02001593YS02001596 CONDUIT    317.93     0  02:08      1.74    0.50    1.00
  YS02001596YS02001600 CONDUIT    317.94     0  02:07      1.21    0.62    1.00
  YS02001600YS02001601 CONDUIT    317.92     0  02:08      1.12    0.55    1.00
  YS02001601YS02001602 CONDUIT    532.21     0  01:56      1.88    1.92    1.00
  YS02001602YS02001605 CONDUIT    529.85     0  01:56      1.87   11.21    1.00
  YS02001605YS02001607 CONDUIT    528.48     0  01:57      1.87    2.90    1.00
  YS02001607YS02001610 CONDUIT    533.04     0  01:56      0.68    0.51    1.00
  YS02001610YS02001613 CONDUIT    537.81     0  01:56      0.68    0.62    1.00
  YS02001613YS02001616 CONDUIT    540.93     0  01:56      0.69    0.46    1.00
  YS02001616YS02001619 CONDUIT    516.27     0  01:57      0.66    0.90    1.00
  YS02001619YS02001622 CONDUIT    942.65     0  01:59      1.21    1.39    1.00
  YS02001622YS02001625 CONDUIT    941.39     0  01:59      1.20    0.50    1.00
  YS02001625YS02001629 CONDUIT    940.31     0  01:59      1.20    0.45    1.00
  YS02001629YS02163301 CONDUIT    938.36     0  01:59      1.19    1.16    1.00
  YS02001633YS02163601 CONDUIT   1416.09     0  01:59      1.80    1.49    1.00
  YS02001641YS02001644 CONDUIT   1418.16     0  01:59      1.81    4.58    1.00
  YS02001644YS02001647 CONDUIT   1838.07     0  01:59      2.38    1.08    1.00
  YS02001647YS02001649 CONDUIT   1852.04     0  01:59      2.36    0.98    1.00
  YS02001649YS02001757 CONDUIT   2114.13     0  01:59      2.69    1.28    1.00
  YS02001652YS02001649 CONDUIT    740.74     0  02:02      0.94    0.37    1.00
  YS02001655YS02001652 CONDUIT    739.80     0  02:02      1.35    0.36    1.00
  YS02001658YS02001655 CONDUIT    738.40     0  02:02      1.95    0.31    1.00
  YS02001661YS02001658 CONDUIT    736.88     0  02:02      2.36    0.29    1.00
  YS02001664YS02001661 CONDUIT    779.62     0  02:02      2.39    0.24    0.77
  YS02001745YS02001748 CONDUIT    564.31     0  02:01      2.22    0.22    0.91
  YS02001748YS02001751 CONDUIT    472.68     0  02:02      1.72    0.24    1.00
  YS02001751YS02001754 CONDUIT    473.88     0  02:02      1.45    0.23    1.00
  YS02001754YS02001757 CONDUIT    475.65     0  02:02      0.61    0.19    1.00
  YS02001757CaochengTiaoxuchi CONDUIT   3279.96     0  02:02      4.18    1.42    1.00
  YS02001759YS02001757 CONDUIT   1268.36     0  02:01      1.61    0.90    1.00
  YS02001762YS02001759 CONDUIT    741.13     0  02:01      0.94    0.85    1.00
  YS02001765YS02001762 CONDUIT    739.36     0  02:01      0.94    0.69    1.00
  YS02001767YS02001765 CONDUIT    736.48     0  02:01      0.94    0.93    1.00
  YS02001770YS02001767 CONDUIT    732.79     0  02:01      0.93    2.90    1.00
  YS02001774YS02001770 CONDUIT    442.94     0  02:00      0.56    0.28    1.00
  YS02001779YS02001774 CONDUIT    459.21     0  02:00      0.59    0.23    1.00
  YS02001783YS02001784 CONDUIT   1156.28     0  02:01      2.30    1.59    1.00
  YS02001784YS02001785 CONDUIT   1156.81     0  02:01      2.30    2.69    1.00
  YS02001786YS02001788 CONDUIT   1158.13     0  02:01      2.47    2.23    0.89
  YS02001788YS02001790 CONDUIT   1171.18     0  02:00      2.71    0.86    0.84
  YS02001790YS02001791 CONDUIT   1275.01     0  02:01      3.41    1.39    0.70
  YS02001791YS02001793 CONDUIT   1246.82     0  02:01      6.74    0.54    0.44
  YS02001793JiankangQianchi CONDUIT   1230.64     0  02:10      2.47    0.10    0.65
  YS02001882YS02001884 CONDUIT     44.69     0  01:58      0.12    0.05    1.00
  YS02001884YS02001887 CONDUIT     86.56     0  01:58      0.11    0.12    1.00
  YS02001887YS02001890 CONDUIT    570.46     0  02:01      0.73    0.98    1.00
  YS02001890YS02001895 CONDUIT    522.07     0  01:59      0.66    0.24    1.00
  YS02001895YS02001898 CONDUIT    525.96     0  01:59      0.67    0.91    1.00
  YS02001898YS02001901 CONDUIT    531.08     0  01:59      0.68    0.34    1.00
  YS02001901YS02001904 CONDUIT    533.46     0  01:59      0.68    0.83    1.00
  YS02001904YS02001907 CONDUIT    535.91     0  01:59      0.68    0.19    1.00
  YS02001907YS02006553 CONDUIT    790.32     0  02:13      0.88    0.93    1.00
  YS02001910YS02001907 CONDUIT   1043.25     0  02:01      1.33    0.59    1.00
  YS02001915YS02001910 CONDUIT   1042.27     0  02:01      1.33    0.52    1.00
  YS02001918YS02001915 CONDUIT    497.16     0  01:59      0.63    0.27    1.00
  YS02001920YS02001918 CONDUIT    469.85     0  02:00      0.65    0.45    1.00
  YS02001923YS02001920 CONDUIT    474.50     0  02:00      0.72    0.21    1.00
  YS02001926YS02001923 CONDUIT    579.58     0  02:00      0.99    0.83    1.00
  YS02001929YS02001926 CONDUIT    555.81     0  02:00      1.19    0.26    1.00
  YS02006553YS02006556 CONDUIT    790.05     0  02:13      1.01    0.68    1.00
  YS02006556YS02006558 CONDUIT    791.58     0  02:12      1.01    0.63    1.00
  YS02006558YS02006561 CONDUIT   1158.79     0  02:00      4.10    2.56    1.00
  YS02006561YS02001783 CONDUIT   1156.57     0  02:01      2.30    0.60    1.00
  YS02163301YS02001633 CONDUIT    938.13     0  01:59      1.19    0.88    1.00
  YS02163601YS02164001 CONDUIT   1415.11     0  01:59      1.80    1.25    1.00
  YS02164001YS02001641 CONDUIT   1416.66     0  01:59      1.80    1.93    1.00
  YSB1154YSB6556       CONDUIT    312.77     0  02:02      0.81    0.56    1.00
  YSB1171HS02004479    CONDUIT    494.16     0  01:59      0.98    0.33    1.00
  YSB1174YSB1171       CONDUIT    268.77     0  02:01      0.70    0.41    1.00
  YSB6556YSB1171       CONDUIT    313.16     0  02:02      0.81    0.32    1.00
  CC-R1                PUMP       683.00     0  00:00              1.00
  CC-R2                PUMP       683.00     0  00:00              1.00
  CC-S1                PUMP       200.00     0  00:00              1.00
  CC-S2                PUMP       200.00     0  00:00              1.00
  JK-R1                PUMP      1000.00     0  00:00              1.00
  JK-R2                PUMP      1000.00     0  00:00              1.00
  JK-S                 PUMP       300.00     0  00:00              1.00
  XR-1                 PUMP        95.00     0  00:00              1.00
  XR-2                 PUMP        95.00     0  00:00              1.00
  XR-3                 PUMP        95.00     0  00:00              1.00
  XR-4                 PUMP        95.00     0  00:00              1.00
  
  
  ***************************
  Flow Classification Summary
  ***************************
  
  -------------------------------------------------------------------------------------
                      Adjusted    ---------- Fraction of Time in Flow Class ---------- 
                       /Actual         Up    Down  Sub   Sup   Up    Down  Norm  Inlet 
  Conduit               Length    Dry  Dry   Dry   Crit  Crit  Crit  Crit  Ltd   Ctrl  
  -------------------------------------------------------------------------------------
  1                       1.00   0.00  0.00  0.00  0.00  1.00  0.00  0.00  0.36  0.00
  HS02004478WS02006287    1.00   0.11  0.00  0.00  0.58  0.31  0.00  0.00  0.61  0.00
  HS02004479HS02004480    1.00   0.04  0.00  0.00  0.96  0.00  0.00  0.00  0.11  0.00
  HS02004480HS02004478    1.00   0.10  0.00  0.00  0.51  0.00  0.00  0.39  0.00  0.00
  HS02004770HS02004777    1.00   0.00  0.09  0.00  0.91  0.00  0.00  0.00  0.03  0.00
  HS02004777HS02004785    1.00   0.00  0.00  0.00  1.00  0.00  0.00  0.00  0.12  0.00
  HS02004785HS02004788    1.00   0.00  0.00  0.00  1.00  0.00  0.00  0.00  0.00  0.00
  HS02004788HS02004792    1.00   0.00  0.00  0.00  0.99  0.01  0.00  0.00  0.92  0.00
  HS02004792HS02004799    1.00   0.00  0.00  0.00  0.99  0.01  0.00  0.00  0.88  0.00
  HS02004799HS02004480    1.00   0.00  0.04  0.00  0.89  0.00  0.07  0.00  0.00  0.00
  HS02004802HS02004478    1.00   0.10  0.00  0.00  0.90  0.00  0.00  0.00  0.03  0.00
  HS02004807HS02004802    1.00   0.10  0.00  0.00  0.90  0.00  0.00  0.01  0.00  0.00
  HS02004817HS02004807    1.00   0.00  0.10  0.00  0.90  0.00  0.00  0.00  0.01  0.00
  HS02004817HS02004824    1.00   0.00  0.00  0.00  1.00  0.00  0.00  0.00  0.84  0.00
  HS02004824HS02004830    1.00   0.00  0.00  0.00  1.00  0.00  0.00  0.00  0.01  0.00
  HS02004830HS02004837    1.00   0.00  0.00  0.00  1.00  0.00  0.00  0.00  0.90  0.00
  HS02004837HS02004842    1.00   0.00  0.00  0.00  0.99  0.01  0.00  0.00  0.11  0.00
  HS02004842HS02004848    1.00   0.00  0.09  0.00  0.90  0.00  0.00  0.00  0.58  0.00
  HS02004848HS02004852    1.00   0.10  0.00  0.00  0.90  0.00  0.00  0.00  0.71  0.00
  HS02004852HS02004856    1.00   0.09  0.01  0.00  0.90  0.00  0.00  0.00  0.70  0.00
  HS02004856HS02004862    1.00   0.00  0.12  0.00  0.88  0.00  0.00  0.00  0.75  0.00
  HS02004862HS02004870    1.00   0.00  0.00  0.00  1.00  0.00  0.00  0.00  0.04  0.00
  HS02004870HS02004876    1.00   0.01  0.00  0.00  0.98  0.01  0.00  0.00  0.88  0.00
  HS02004876HS02004881    1.00   0.02  0.00  0.00  0.73  0.25  0.00  0.00  0.00  0.00
  HS02004881HS02006253    1.00   0.04  0.02  0.00  0.34  0.02  0.00  0.58  0.13  0.00
  HS02004901HS02004770    1.00   0.09  0.00  0.00  0.91  0.00  0.00  0.00  0.00  0.00
  WS02001211WS02001212    1.00   0.00  0.03  0.00  0.97  0.00  0.00  0.00  0.00  0.00
  WS02001212WS02001213    1.00   0.03  0.00  0.00  0.43  0.00  0.54  0.00  0.00  0.00
  WS02001213WS02003059    1.00   0.00  0.00  0.00  0.99  0.00  0.00  0.00  0.00  0.00
  WS02003059WS02003060    1.00   0.00  0.00  0.00  1.00  0.00  0.00  0.00  0.03  0.00
  WS02003060WS02003069    1.00   0.00  0.00  0.00  0.99  0.01  0.00  0.00  0.62  0.00
  WS02003066WSF200        1.00   0.06  0.00  0.00  0.00  0.94  0.00  0.00  0.71  0.00
  WS02003067WS02003066    1.00   0.06  0.00  0.00  0.94  0.00  0.00  0.00  0.00  0.00
  WS02003069WS02003072    1.00   0.00  0.00  0.00  1.00  0.00  0.00  0.00  0.69  0.00
  WS02003072WS02003073    1.00   0.00  0.00  0.00  0.00  0.00  0.00  1.00  0.00  0.00
  WS02004138WS02004139    1.00   0.00  0.01  0.00  0.97  0.01  0.00  0.02  0.98  0.00
  WS02004139WS02001211    1.00   0.00  0.00  0.00  0.99  0.00  0.00  0.00  0.00  0.00
  WS02004401WS02004402    1.00   0.03  0.00  0.00  0.97  0.00  0.00  0.00  0.00  0.00
  WS02004402WS02004403    1.00   0.03  0.00  0.00  0.97  0.00  0.00  0.00  0.00  0.00
  WS02004403WS02004404    1.00   0.00  0.03  0.00  0.97  0.00  0.00  0.00  0.00  0.00
  WS02004404WS02004405    1.00   0.00  0.00  0.00  1.00  0.00  0.00  0.00  0.01  0.00
  WS02004405WS02004406    1.00   0.00  0.00  0.00  1.00  0.00  0.00  0.00  0.00  0.00
  WS02004406WS02004407    1.00   0.00  0.04  0.00  0.96  0.00  0.00  0.00  0.00  0.00
  WS02004407WS02004409    1.00   0.04  0.00  0.00  0.95  0.01  0.00  0.00  0.86  0.00
  WS02004409WS02004410    1.00   0.04  0.00  0.00  0.96  0.00  0.00  0.00  0.00  0.00
  WS02004410WS02004411    1.00   0.05  0.00  0.00  0.95  0.00  0.00  0.00  0.00  0.00
  WS02004411WS02004412    1.00   0.05  0.00  0.00  0.95  0.00  0.00  0.00  0.00  0.00
  WS02004412WS02004413    1.00   0.05  0.00  0.00  0.95  0.00  0.00  0.00  0.00  0.00
  WS02004413WS02003067    1.00   0.05  0.01  0.00  0.00  0.00  0.94  0.00  0.00  0.00
  WS02006109WS02006110    1.00   0.00  0.01  0.00  0.98  0.00  0.01  0.00  0.00  0.00
  WS02006110WS02006113    1.00   0.01  0.01  0.00  0.98  0.00  0.00  0.00  0.00  0.00
  WS02006111WS02006112    1.00   0.02  0.00  0.00  0.97  0.00  0.00  0.00  0.79  0.00
  WS02006112WS02006115    1.00   0.02  0.01  0.00  0.97  0.00  0.00  0.00  0.00  0.00
  WS02006113WS02006111    1.00   0.02  0.00  0.00  0.29  0.69  0.00  0.00  0.08  0.00
  WS02006115WS02006116    1.00   0.03  0.00  0.00  0.96  0.00  0.00  0.01  0.00  0.00
  WS02006116WS02004401    1.00   0.03  0.00  0.00  0.97  0.00  0.00  0.00  0.00  0.00
  WS02006228WS02006109    1.00   0.00  0.00  0.00  1.00  0.00  0.00  0.00  0.00  0.00
  WS02006229WS02006228    1.00   0.00  0.00  0.00  0.99  0.00  0.00  0.01  0.00  0.00
  WS02006230WS02006229    1.00   0.00  0.00  0.00  0.98  0.00  0.00  0.02  0.01  0.00
  WS02006231WS02006230    1.00   0.00  0.00  0.00  0.46  0.00  0.54  0.00  0.00  0.00
  WS02006232WS02006231    1.00   0.00  0.00  0.00  0.99  0.00  0.00  0.00  0.00  0.00
  WS02006234WS02006232    1.00   0.00  0.00  0.00  1.00  0.00  0.00  0.00  0.40  0.00
  WS02006235WS02006234    1.00   0.00  0.00  0.00  0.65  0.00  0.35  0.00  0.00  0.00
  WS02006238WS02006235    1.00   0.00  0.00  0.00  1.00  0.00  0.00  0.00  0.00  0.00
  WS02006239WS02006238    1.00   0.00  0.00  0.00  1.00  0.00  0.00  0.00  0.52  0.00
  WS02006240WS02006239    1.00   0.00  0.00  0.00  0.57  0.00  0.00  0.43  0.00  0.00
  WS02006242WS02006240    1.00   0.00  0.00  0.00  0.99  0.00  0.00  0.00  0.00  0.00
  WS02006243WS02006242    1.00   0.00  0.00  0.00  0.99  0.00  0.00  0.00  0.70  0.00
  WS02006245WS02006243    1.00   0.00  0.00  0.00  0.88  0.00  0.00  0.12  0.00  0.00
  WS02006247WS02006245    1.00   0.00  0.00  0.00  0.99  0.00  0.00  0.00  0.00  0.00
  WS02006248WS02006247    1.00   0.00  0.00  0.00  1.00  0.00  0.00  0.00  0.66  0.00
[...]
  WS02006284WS02006280    1.00   0.10  0.00  0.00  0.16  0.01  0.00  0.73  0.00  0.00
  WS02006287WS02006284    1.00   0.08  0.03  0.00  0.48  0.41  0.00  0.00  0.66  0.00
  WSF200WS02003060        1.00   0.00  0.06  0.00  0.54  0.39  0.00  0.00  0.68  0.00
  YS02001580YS02001583    1.00   0.24  0.47  0.00  0.29  0.00  0.00  0.00  0.69  0.00
  YS02001583YS02001586    1.00   0.34  0.29  0.00  0.37  0.00  0.00  0.00  0.69  0.00
  YS02001586YS02001590    1.00   0.09  0.00  0.00  0.57  0.03  0.00  0.30  0.34  0.00
  YS02001590YS02001593    1.00   0.10  0.00  0.00  0.16  0.00  0.75  0.00  0.00  0.00
  YS02001593YS02001596    1.00   0.10  0.00  0.00  0.18  0.01  0.00  0.70  0.02  0.00
  YS02001596YS02001600    1.00   0.10  0.00  0.00  0.30  0.02  0.00  0.57  0.06  0.00
  YS02001600YS02001601    1.00   0.10  0.00  0.00  0.90  0.00  0.00  0.00  0.63  0.00
  YS02001601YS02001602    1.00   0.09  0.00  0.00  0.90  0.00  0.00  0.00  0.00  0.00
  YS02001602YS02001605    1.00   0.10  0.00  0.00  0.90  0.00  0.00  0.00  0.00  0.00
  YS02001605YS02001607    1.00   0.10  0.00  0.00  0.90  0.00  0.00  0.00  0.00  0.00
  YS02001607YS02001610    1.00   0.10  0.00  0.00  0.90  0.00  0.00  0.00  0.02  0.00
  YS02001610YS02001613    1.00   0.10  0.00  0.00  0.90  0.00  0.00  0.00  0.01  0.00
  YS02001613YS02001616    1.00   0.10  0.00  0.00  0.90  0.00  0.00  0.00  0.00  0.00
  YS02001616YS02001619    1.00   0.09  0.00  0.00  0.91  0.00  0.00  0.00  0.00  0.00
  YS02001619YS02001622    1.00   0.09  0.00  0.00  0.91  0.00  0.00  0.00  0.35  0.00
  YS02001622YS02001625    1.00   0.10  0.00  0.00  0.90  0.00  0.00  0.00  0.05  0.00
  YS02001625YS02001629    1.00   0.10  0.03  0.00  0.22  0.00  0.65  0.00  0.00  0.00
  YS02001629YS02163301    1.00   0.11  0.01  0.00  0.88  0.00  0.00  0.00  0.00  0.00
  YS02001633YS02163601    1.00   0.00  0.01  0.00  0.99  0.00  0.00  0.00  0.15  0.00
  YS02001641YS02001644    1.00   0.00  0.01  0.00  0.99  0.00  0.00  0.00  0.00  0.00
  YS02001644YS02001647    1.00   0.00  0.12  0.00  0.88  0.00  0.00  0.00  0.00  0.00
  YS02001647YS02001649    1.00   0.00  0.12  0.00  0.53  0.35  0.00  0.00  0.59  0.00
  YS02001649YS02001757    1.00   0.00  0.00  0.00  0.63  0.37  0.00  0.00  0.57  0.00
  YS02001652YS02001649    1.00   0.00  0.00  0.00  0.97  0.03  0.00  0.00  0.78  0.00
  YS02001655YS02001652    1.00   0.00  0.00  0.00  0.24  0.04  0.00  0.72  0.05  0.00
  YS02001658YS02001655    1.00   0.00  0.10  0.00  0.57  0.33  0.00  0.00  0.72  0.00
  YS02001661YS02001658    1.00   0.10  0.00  0.00  0.41  0.49  0.00  0.00  0.72  0.00
  YS02001664YS02001661    1.00   0.09  0.00  0.00  0.72  0.19  0.00  0.00  0.86  0.00
  YS02001745YS02001748    1.00   0.00  0.00  0.00  0.10  0.02  0.00  0.88  0.04  0.00
  YS02001748YS02001751    1.00   0.00  0.00  0.00  0.71  0.29  0.00  0.00  0.79  0.00
  YS02001751YS02001754    1.00   0.00  0.00  0.00  0.20  0.01  0.00  0.79  0.02  0.00
  YS02001754YS02001757    1.00   0.00  0.00  0.00  1.00  0.00  0.00  0.00  0.87  0.00
  YS02001757CaochengTiaoxuchi    1.00   0.00  0.00  0.00  1.00  0.00  0.00  0.00  0.86  0.00
  YS02001759YS02001757    1.00   0.00  0.00  0.00  1.00  0.00  0.00  0.00  0.63  0.00
  YS02001762YS02001759    1.00   0.00  0.00  0.00  1.00  0.00  0.00  0.00  0.04  0.00
  YS02001765YS02001762    1.00   0.00  0.00  0.00  1.00  0.00  0.00  0.00  0.76  0.00
  YS02001767YS02001765    1.00   0.00  0.00  0.00  1.00  0.00  0.00  0.00  0.00  0.00
  YS02001770YS02001767    1.00   0.00  0.00  0.00  1.00  0.00  0.00  0.00  0.00  0.00
  YS02001774YS02001770    1.00   0.00  0.10  0.00  0.72  0.00  0.18  0.00  0.03  0.00
  YS02001779YS02001774    1.00   0.00  0.00  0.00  1.00  0.00  0.00  0.00  0.81  0.00
  YS02001783YS02001784    1.00   0.00  0.13  0.00  0.87  0.00  0.00  0.00  0.58  0.00
  YS02001784YS02001785    1.00   0.00  0.00  0.00  1.00  0.00  0.00  0.00  0.17  0.00
  YS02001786YS02001788    1.00   0.00  0.00  0.00  0.64  0.36  0.00  0.00  0.00  0.00
  YS02001788YS02001790    1.00   0.00  0.00  0.00  0.17  0.83  0.00  0.00  0.84  0.00
  YS02001790YS02001791    1.00   0.00  0.00  0.00  0.01  0.99  0.00  0.00  0.16  0.00
  YS02001791YS02001793    1.00   0.00  0.00  0.00  0.00  1.00  0.00  0.00  0.01  0.00
  YS02001793JiankangQianchi    1.00   0.00  0.00  0.00  0.97  0.03  0.00  0.00  0.98  0.00
  YS02001882YS02001884    1.00   0.11  0.00  0.00  0.89  0.00  0.00  0.00  0.00  0.00
  YS02001884YS02001887    1.00   0.06  0.03  0.00  0.91  0.00  0.00  0.00  0.00  0.00
  YS02001887YS02001890    1.00   0.00  0.00  0.00  0.96  0.00  0.04  0.00  0.00  0.00
  YS02001890YS02001895    1.00   0.00  0.11  0.00  0.88  0.00  0.00  0.00  0.00  0.00
  YS02001895YS02001898    1.00   0.12  0.00  0.00  0.86  0.00  0.02  0.00  0.00  0.00
  YS02001898YS02001901    1.00   0.12  0.00  0.00  0.88  0.00  0.00  0.00  0.01  0.00
  YS02001901YS02001904    1.00   0.12  0.00  0.00  0.88  0.00  0.00  0.00  0.00  0.00
  YS02001904YS02001907    1.00   0.00  0.11  0.00  0.88  0.00  0.00  0.00  0.00  0.00
  YS02001907YS02006553    1.00   0.00  0.03  0.00  0.97  0.00  0.00  0.00  0.00  0.00
  YS02001910YS02001907    1.00   0.00  0.00  0.00  0.96  0.00  0.00  0.03  0.12  0.00
  YS02001915YS02001910    1.00   0.00  0.00  0.00  0.97  0.03  0.00  0.00  0.16  0.00
  YS02001918YS02001915    1.00   0.00  0.01  0.00  0.97  0.03  0.00  0.00  0.78  0.00
  YS02001920YS02001918    1.00   0.00  0.01  0.00  0.99  0.00  0.00  0.00  0.00  0.00
  YS02001923YS02001920    1.00   0.00  0.00  0.00  1.00  0.00  0.00  0.00  0.95  0.00
  YS02001926YS02001923    1.00   0.00  0.07  0.00  0.06  0.00  0.87  0.00  0.00  0.00
  YS02001929YS02001926    1.00   0.00  0.09  0.00  0.91  0.00  0.00  0.00  0.84  0.00
  YS02006553YS02006556    1.00   0.01  0.00  0.00  0.99  0.00  0.00  0.00  0.03  0.00
  YS02006556YS02006558    1.00   0.00  0.00  0.00  1.00  0.00  0.00  0.00  0.00  0.00
  YS02006558YS02006561    1.00   0.13  0.00  0.00  0.06  0.81  0.00  0.00  0.18  0.00
  YS02006561YS02001783    1.00   0.13  0.00  0.00  0.10  0.77  0.00  0.00  0.72  0.00
  YS02163301YS02001633    1.00   0.00  0.11  0.00  0.89  0.00  0.00  0.00  0.00  0.00
  YS02163601YS02164001    1.00   0.00  0.07  0.00  0.93  0.00  0.00  0.00  0.00  0.00
  YS02164001YS02001641    1.00   0.01  0.07  0.00  0.93  0.00  0.00  0.00  0.06  0.00
  YSB1154YSB6556          1.00   0.09  0.00  0.00  0.91  0.00  0.00  0.00  0.02  0.00
  YSB1171HS02004479       1.00   0.05  0.00  0.00  0.94  0.00  0.00  0.01  0.10  0.00
  YSB1174YSB1171          1.00   0.05  0.02  0.00  0.92  0.00  0.00  0.00  0.00  0.00
  YSB6556YSB1171          1.00   0.05  0.05  0.00  0.91  0.00  0.00  0.00  0.00  0.00
  
  
  *************************
  Conduit Surcharge Summary
  *************************
  
  ----------------------------------------------------------------------------
                                                           Hours        Hours 
                         --------- Hours Full --------   Above Full   Capacity
  Conduit                Both Ends  Upstream  Dnstream   Normal Flow   Limited
  ----------------------------------------------------------------------------
  HS02004478WS02006287        0.36      0.36      0.52      0.01         0.01
  HS02004479HS02004480        0.52      0.52      0.54      0.01         0.01
  HS02004480HS02004478        0.46      0.52      0.46      1.54         0.46
  HS02004770HS02004777        0.43      0.43      0.44      0.09         0.06
  HS02004777HS02004785        0.39      0.39      0.44      0.01         0.01
  HS02004785HS02004788        0.38      0.39      0.38      1.24         0.36
  HS02004788HS02004792        0.38      0.38      0.49      0.01         0.01
  HS02004792HS02004799        0.49      0.49      0.59      0.01         0.01
  HS02004799HS02004480        0.52      0.52      0.59      0.68         0.01
  HS02004802HS02004478        0.47      0.47      0.53      0.01         0.01
  HS02004807HS02004802        0.50      0.50      0.52      0.14         0.14
  HS02004817HS02004807        0.50      0.50      1.02      0.01         0.01
  HS02004817HS02004824        0.38      0.38      1.02      0.01         0.01
  HS02004824HS02004830        0.35      0.35      0.38      0.01         0.01
  HS02004830HS02004837        0.31      0.31      0.35      0.01         0.01
  HS02004837HS02004842        0.31      0.31      0.44      0.01         0.01
  HS02004842HS02004848        0.28      0.28      0.44      0.01         0.01
  HS02004848HS02004852        0.28      0.28      0.31      0.02         0.01
  HS02004852HS02004856        0.31      0.31      0.33      0.02         0.01
  HS02004856HS02004862        0.29      0.29      0.32      0.01         0.01
  HS02004862HS02004870        0.32      0.32      0.34      0.04         0.04
  HS02004870HS02004876        0.34      0.34      0.41      0.01         0.01
  HS02004876HS02004881        0.39      0.41      0.39      1.27         0.39
  HS02004881HS02006253        0.39      0.39      1.44      0.01         0.01
  HS02004901HS02004770        0.43      0.43      0.44      0.01         0.01
  WS02003072WS02003073        0.01      0.01      0.01      2.01         0.01
  WS02004401WS02004402        1.37      1.37      1.39      1.20         1.20
  WS02004402WS02004403        1.39      1.39      1.41      1.36         1.35
  WS02004403WS02004404        1.41      1.41      1.54      0.01         0.01
  WS02004404WS02004405        1.53      1.54      1.53      2.61         1.53
  WS02004405WS02004406        1.50      1.53      1.50      1.63         1.50
  WS02004406WS02004407        0.01      0.01      1.50      0.01         0.01
  WS02004407WS02004409        0.01      0.01      0.80      0.01         0.01
  WS02004409WS02004410        0.76      0.80      0.76      1.27         0.76
  WS02004410WS02004411        0.71      0.76      0.71      1.32         0.71
  WS02004411WS02004412        0.63      0.71      0.63      1.35         0.63
  WS02004412WS02004413        0.63      0.63      1.15      0.01         0.01
  WS02004413WS02003067        0.01      0.01      1.15      0.01         0.01
  WS02006109WS02006110        1.60      1.60      1.76      1.60         0.01
  WS02006110WS02006113        1.09      1.09      1.75      0.22         0.01
  WS02006111WS02006112        1.06      1.06      1.87      0.01         0.01
  WS02006112WS02006115        1.28      1.28      1.64      0.01         0.01
  WS02006113WS02006111        1.08      1.09      1.08      1.18         1.07
  WS02006115WS02006116        1.29      1.29      1.29      1.26         1.25
  WS02006116WS02004401        1.36      1.36      1.37      1.33         1.32
  WS02006228WS02006109        1.74      1.76      1.74      2.19         1.74
  WS02006229WS02006228        1.74      1.74      1.74      1.91         1.74
  WS02006230WS02006229        1.78      1.79      1.78      2.65         0.89
  WS02006231WS02006230        1.53      1.53      1.54      2.17         0.78
  WS02006232WS02006231        1.54      1.54      1.61      0.01         0.12
  WS02006234WS02006232        1.56      1.56      1.61      0.01         0.01
  WS02006235WS02006234        1.54      1.54      1.56      1.94         0.76
  WS02006238WS02006235        1.56      1.56      1.57      0.01         0.30
  WS02006239WS02006238        1.55      1.55      1.56      1.03         0.29
  WS02006240WS02006239        1.53      1.53      1.54      1.01         0.28
  WS02006242WS02006240        1.53      1.53      1.54      1.14         0.73
  WS02006243WS02006242        1.50      1.50      1.53      0.01         0.01
  WS02006245WS02006243        1.49      1.49      1.50      0.31         0.23
  WS02006247WS02006245        1.49      1.49      1.49      1.41         0.45
  WS02006248WS02006247        1.48      1.48      1.49      0.01         0.01
  WS02006249WS02006248        1.47      1.47      1.47      0.44         0.01
  WS02006251WS02006249        1.47      1.47      1.47      1.50         1.41
  WS02006252WS02006251        1.57      1.57      1.58      1.21         0.01
  WS02006253WS02006251        1.47      1.47      1.47      0.62         0.01
  WS02006256WS02006235        2.32      2.33      4.18      0.73         0.01
  WS02006280WS02006229        0.64      0.64      0.74      0.01         0.01
  WS02006284WS02006280        0.54      0.54      0.61      0.01         0.01
  WS02006287WS02006284        0.45      0.45      0.55      0.17         0.16
  YS02001580YS02001583        0.40      0.40      0.44      0.01         0.01
  YS02001583YS02001586        0.40      0.40      0.51      0.01         0.01
  YS02001586YS02001590        0.52      0.52      0.58      0.01         0.01
  YS02001590YS02001593        0.58      0.58      0.59      0.61         0.01
  YS02001593YS02001596        0.59      0.59      0.67      0.01         0.01
  YS02001596YS02001600        0.71      0.71      0.80      0.01         0.01
  YS02001600YS02001601        0.85      0.85      1.16      0.01         0.01
  YS02001601YS02001602        1.03      1.03      1.21      0.81         0.01
  YS02001602YS02001605        0.97      0.97      1.03      1.98         0.01
  YS02001605YS02001607        0.93      0.97      0.93      1.11         0.93
  YS02001607YS02001610        0.55      0.55      0.57      0.01         0.01
  YS02001610YS02001613        0.54      0.54      0.57      0.01         0.01
  YS02001613YS02001616        0.51      0.51      0.54      0.01         0.01
  YS02001616YS02001619        0.49      0.49      0.51      0.01         0.01
  YS02001619YS02001622        0.49      0.49      0.49      0.60         0.46
  YS02001622YS02001625        0.49      0.49      0.65      0.01         0.01
  YS02001625YS02001629        0.45      0.45      0.65      0.01         0.01
  YS02001629YS02163301        0.64      0.64      0.65      0.17         0.16
  YS02001633YS02163601        0.66      0.66      0.69      0.32         0.32
  YS02001641YS02001644        0.58      0.60      0.58      1.28         0.57
  YS02001644YS02001647        0.40      0.40      0.58      0.04         0.01
  YS02001647YS02001649        0.40      0.40      0.49      0.01         0.01
  YS02001649YS02001757        0.49      0.49      0.54      0.08         0.11
  YS02001652YS02001649        0.35      0.35      0.49      0.01         0.01
  YS02001655YS02001652        0.21      0.21      0.33      0.01         0.01
  YS02001658YS02001655        0.07      0.07      0.21      0.01         0.01
  YS02001661YS02001658        0.01      0.01      0.07      0.01         0.01
  YS02001664YS02001661        0.01      0.01      0.01      0.01         0.01
  YS02001745YS02001748        0.01      0.01      0.01      0.01         0.01
  YS02001748YS02001751        0.05      0.05      0.13      0.01         0.01
  YS02001751YS02001754        0.13      0.13      0.25      0.01         0.01
  YS02001754YS02001757        0.28      0.28      0.54      0.01         0.01
  YS02001757CaochengTiaoxuchi        0.53      0.54      1.01      0.24         0.22
  YS02001759YS02001757        0.46      0.46      0.54      0.01         0.01
  YS02001762YS02001759        0.43      0.43      0.46      0.01         0.02
  YS02001765YS02001762        0.39      0.39      0.43      0.01         0.01
  YS02001767YS02001765        0.36      0.36      0.39      0.01         0.02
  YS02001770YS02001767        0.36      0.36      0.36      0.36         0.26
  YS02001774YS02001770        0.34      0.34      0.41      0.01         0.01
  YS02001779YS02001774        0.25      0.25      0.41      0.01         0.01
  YS02001783YS02001784        0.33      0.35      0.33      0.47         0.33
  YS02001784YS02001785        0.24      0.33      0.24      0.65         0.24
  YS02001786YS02001788        0.01      0.24      0.01      0.55         0.01
  YS02001790YS02001791        0.01      0.01      0.01      0.32         0.01
  YS02001793JiankangQianchi        0.01      0.01      7.69      0.01         0.01
  YS02001882YS02001884        0.31      0.31      0.32      0.01         0.01
  YS02001884YS02001887        0.34      0.34      0.35      0.01         0.01
  YS02001887YS02001890        0.36      0.36      0.37      0.01         0.01
  YS02001890YS02001895        0.30      0.30      0.38      0.01         0.01
  YS02001895YS02001898        0.29      0.29      0.30      0.01         0.01
  YS02001898YS02001901        0.30      0.30      0.33      0.01         0.01
  YS02001901YS02001904        0.33      0.33      0.33      0.01         0.01
  YS02001904YS02001907        0.33      0.33      0.54      0.01         0.01
  YS02001907YS02006553        0.66      0.66      0.72      0.01         0.01
  YS02001910YS02001907        0.38      0.38      0.53      0.01         0.01
  YS02001915YS02001910        0.30      0.30      0.38      0.01         0.01
  YS02001918YS02001915        0.23      0.23      0.30      0.01         0.01
  YS02001920YS02001918        0.23      0.23      0.24      0.01         0.01
  YS02001923YS02001920        0.19      0.19      0.24      0.01         0.01
  YS02001926YS02001923        0.01      0.01      0.01      0.01         0.01
  YS02001929YS02001926        0.01      0.01      0.01      0.01         0.01
  YS02006553YS02006556        0.45      0.45      0.54      0.01         0.01
  YS02006556YS02006558        0.50      0.50      0.55      0.01         0.01
  YS02006558YS02006561        0.27      0.44      0.27      0.62         0.27
  YS02006561YS02001783        0.20      0.20      0.35      0.01         0.01
  YS02163301YS02001633        0.65      0.65      0.68      0.01         0.01
  YS02163601YS02164001        0.61      0.61      0.69      0.06         0.01
  YS02164001YS02001641        0.60      0.61      0.60      0.61         0.51
  YSB1154YSB6556              0.57      0.57      0.70      0.01         0.01
  YSB1171HS02004479           0.48      0.48      0.70      0.01         0.01
  YSB1174YSB1171              0.62      0.62      0.94      0.01         0.01
  YSB6556YSB1171              0.57      0.57      1.10      0.01         0.01
  
  
  ***************
  Pumping Summary
  ***************
  
  ---------------------------------------------------------------------------------------------------------
                                                  Min       Avg       Max     Total     Power    % Time Off
                        Percent   Number of      Flow      Flow      Flow    Volume     Usage    Pump Curve
  Pump                 Utilized   Start-Ups       LPS       LPS       LPS  10^6 ltr     Kw-hr    Low   High
  ---------------------------------------------------------------------------------------------------------
  CC-R1                   17.10           2      0.00    683.00    683.00     3.363     61.15    0.0   30.5
  CC-R2                   16.02           2      0.00    683.00    683.00     3.150     57.20    0.0   32.6
  CC-S1                   18.94           2      0.00    200.00    200.00     1.091      7.57    0.0    0.0
  CC-S2                   17.83           2      0.00    200.00    200.00     1.027      7.09    0.0    0.0
  JK-R1                    5.36           4      0.00   1000.00   1000.00     1.543     15.17    0.0    0.0
  JK-R2                    0.16           1      0.00   1000.00   1000.00     0.047      0.36    0.0    0.0
  JK-S                    16.96           3      0.00    300.00    300.00     1.465     24.05    0.0    0.0
  XR-1                    97.91           2      0.00     95.00     95.00     2.679      9.62    0.0    0.0
  XR-2                    93.94           2      0.00     95.00     95.00     2.570      8.78    0.0    0.0
  XR-3                     0.00           1      0.00     95.00     95.00     0.000      0.00    0.0    0.0
  XR-4                     0.00           1      0.00     95.00     95.00     0.000      0.00    0.0    0.0
  

  Analysis begun on:  Tue Jul 11 11:23:55 2023
  Analysis ended on:  Tue Jul 11 11:23:59 2023
  Total elapsed time: 00:00:04