
  OWA STORM WATER MANAGEMENT MODEL - VERSION v5.1.14 (OWA 2022-07-31)
  --------------------------------------------------------------

  WARNING 04: minimum elevation drop used for Conduit WS02004404WS02004405
  WARNING 03: negative offset ignored for Link YS02001904YS02001907
  
  *********************************************************
  NOTE: The summary statistics displayed in this report are
  based on results found at every computational time step,  
  not just on results from each reporting time step.
  *********************************************************
  
  ****************
  Analysis Options
  ****************
  Flow Units ............... LPS
  Process Models:
    Rainfall/Runoff ........ YES
    RDII ................... NO
    Snowmelt ............... NO
    Groundwater ............ NO
    Flow Routing ........... YES
    Ponding Allowed ........ NO
    Water Quality .......... NO
  Infiltration Method ...... HORTON
  Flow Routing Method ...... DYNWAVE
  Surcharge Method ......... EXTRAN
  Starting Date ............ 08/28/2015 08:00:00
  Ending Date .............. 08/28/2015 16:00:00
  Antecedent Dry Days ...... 8.0
  Report Time Step ......... 00:01:00
  Wet Time Step ............ 00:01:00
  Dry Time Step ............ 00:01:00
  Routing Time Step ........ 30.00 sec
  Variable Time Step ....... YES
  Maximum Trials ........... 8
  Number of Threads ........ 4
  Head Tolerance ........... 0.001500 m
  
  
  **************************        Volume         Depth
  Runoff Quantity Continuity     hectare-m            mm
  **************************     ---------       -------
  Initial LID Storage ......         0.072         1.184
  Total Precipitation ......        14.427       238.151
  Evaporation Loss .........         0.000         0.000
  Infiltration Loss ........         0.222         3.671
  Surface Runoff ...........        12.770       210.802
  Final Storage ............         1.509        24.907
  Continuity Error (%) .....        -0.019
  
  
  **************************        Volume        Volume
  Flow Routing Continuity        hectare-m      10^6 ltr
  **************************     ---------     ---------
  Dry Weather Inflow .......         0.630         6.296
  Wet Weather Inflow .......        12.769       127.695
  Groundwater Inflow .......         0.000         0.000
  RDII Inflow ..............         0.000         0.000
  External Inflow ..........         0.105         1.045
  External Outflow .........         3.469        34.689
  Flooding Loss ............         9.994        99.946
  Evaporation Loss .........         0.000         0.000
  Exfiltration Loss ........         0.000         0.000
  Initial Stored Volume ....         0.303         3.031
  Final Stored Volume ......         0.350         3.498
  Continuity Error (%) .....        -0.048
  
  
  *************************
  Highest Continuity Errors
  *************************
  Node YS02001884 (4.63%)
  Node YS02001583 (-3.15%)
  
  
  ***************************
  Time-Step Critical Elements
  ***************************
  Link WS02006280WS02006229 (42.43%)
  Link YS02001791YS02001793 (22.15%)
  Link WS02004404WS02004405 (10.84%)
  Link WS02006238WS02006235 (7.48%)
  Link YS02006556YS02006558 (2.12%)
  
  
  ********************************
  Highest Flow Instability Indexes
  ********************************
  Link WS02006238WS02006235 (39)
  Link WS02006229WS02006228 (37)
  Link WS02006239WS02006238 (36)
  Link WS02004404WS02004405 (35)
  Link WS02006256WS02006235 (35)
  
  
  *************************
  Routing Time Step Summary
  *************************
  Minimum Time Step           :     0.00 sec
  Average Time Step           :     2.64 sec
  Maximum Time Step           :     6.46 sec
  Percent in Steady State     :    -0.00
  Average Iterations per Step :     4.12
  Percent Not Converging      :    19.09
  
  
  ***************************
  Subcatchment Runoff Summary
  ***************************
  
  ------------------------------------------------------------------------------------------------------------------------------
                            Total      Total      Total      Total     Imperv       Perv      Total       Total     Peak  Runoff
                           Precip      Runon       Evap      Infil     Runoff     Runoff     Runoff      Runoff   Runoff   Coeff
  Subcatchment                 mm         mm         mm         mm         mm         mm         mm    10^6 ltr      LPS
  ------------------------------------------------------------------------------------------------------------------------------
  sub0                     238.15       0.00       0.00       1.06     220.28      15.62     235.90        0.19   132.89   0.991
  sub1                     238.15       0.00       0.00       1.63     188.88      21.85     221.30        1.47   993.62   0.929
  sub10                    238.15       0.00       0.00       1.03     176.98      14.45     210.54        2.32  1688.24   0.884
  sub11                    238.15       0.00       0.00       0.94     164.45      13.44     202.86        2.36  1825.53   0.852
  sub12                    238.15       0.00       0.00       1.65     167.16      23.47     209.85        1.83  1404.84   0.881
  sub14                    238.15       0.00       0.00       1.03     155.75      14.47     198.45        1.89  1484.10   0.833
  sub15                    238.15       0.00       0.00       4.73     140.04      55.64     211.48        3.64  2478.90   0.888
  sub16                    238.15       0.00       0.00       5.01     136.56      62.64     213.39        2.23  1579.77   0.896
  sub17                    238.15       0.00       0.00       5.37     150.73      65.97     223.23        1.92  1275.25   0.937
  sub2                     238.15       0.00       0.00       7.52     138.12      74.09     219.74        2.05  1163.64   0.923
  sub22                    238.15       0.00       0.00       8.40     130.72      90.78     224.72       14.20  8369.01   0.944
  sub23                    238.15       0.00       0.00       6.30     134.60      73.20     217.77       10.39  6790.19   0.914
  sub3                     238.15       0.00       0.00       8.12     136.87      72.77     218.00        4.91  2625.95   0.915
  sub4                     238.15       0.00       0.00       1.79     186.36      21.39     219.47        4.58  2715.32   0.922
  sub5                     238.15       0.00       0.00       0.92     182.72      12.91     212.97        2.41  1717.16   0.894
  sub60                    238.15       0.00       0.00       1.48     160.84      20.58     204.66        2.69  2066.04   0.859
  sub61                    238.15       0.00       0.00       2.28     160.69      30.83     210.10        3.86  2873.24   0.882
  sub62                    238.15       0.00       0.00       1.00     171.35      13.99     207.07        5.67  4180.70   0.870
  sub63                    238.15       0.00       0.00       4.20     137.64      52.34     208.46        4.73  3415.03   0.875
  sub64                    238.15       0.00       0.00       2.01     156.78      25.82     205.11        4.93  3559.38   0.861
  sub65                    238.15       0.00       0.00       1.85     169.25      23.60     211.01        5.81  3990.59   0.886
  sub66                    238.15       0.00       0.00       4.94     133.25      49.82     204.16        9.52  6014.85   0.857
  sub67                    238.15       0.00       0.00       0.99     175.61      14.37     209.74        3.90  2987.27   0.881
  sub68                    238.15       0.00       0.00       1.75     155.12      23.65     203.05        5.59  4254.61   0.853
  sub69                    238.15       0.00       0.00       1.64     160.34      26.66     208.15        7.71  5363.59   0.874
  sub7                     238.15       0.00       0.00       1.09     166.92      15.52     205.40        0.69   533.12   0.862
  sub70                    238.15       0.00       0.00       5.59     128.58      60.70     207.75        6.00  3443.39   0.872
  sub71                    238.15       0.00       0.00       0.93     155.70      12.69     197.43        5.16  3896.77   0.829
  sub72                    238.15       0.00       0.00       0.89     168.28      11.86     204.13        2.81  1951.81   0.857
  sub8                     238.15       0.00       0.00       1.07     162.23      15.07     202.48        1.29   999.23   0.850
  sub9                     238.15       0.00       0.00       1.03     157.27      14.61     199.40        0.96   751.16   0.837
  

  ***********************
  LID Performance Summary
  ***********************

  --------------------------------------------------------------------------------------------------------------------
                                         Total      Evap     Infil   Surface    Drain    Initial     Final  Continuity
                                        Inflow      Loss      Loss   Outflow   Outflow   Storage   Storage       Error
  Subcatchment      LID Control             mm        mm        mm        mm        mm        mm        mm           %
  --------------------------------------------------------------------------------------------------------------------
  sub1              GreenRoof           238.15      0.00      0.00    101.81      0.00      7.05    143.39       -0.00
  sub10             GreenRoof           238.15      0.00      0.00    101.81      0.00      7.05    143.39       -0.00
  sub11             GreenRoof           238.15      0.00      0.00    101.81      0.00      7.05    143.39       -0.00
  sub12             GreenRoof           238.15      0.00      0.00    101.81      0.00      7.05    143.39       -0.00
  sub14             GreenRoof           238.15      0.00      0.00    101.81      0.00      7.05    143.39       -0.00
  sub15             GreenRoof           238.15      0.00      0.00    101.81      0.00      7.05    143.39       -0.00
  sub16             GreenRoof           238.15      0.00      0.00    101.81      0.00      7.05    143.39       -0.00
  sub17             GreenRoof           238.15      0.00      0.00    101.81      0.00      7.05    143.39       -0.00
  sub2              GreenRoof           238.15      0.00      0.00    101.81      0.00      7.05    143.39       -0.00
  sub22             GreenRoof           238.15      0.00      0.00    101.81      0.00      7.05    143.39       -0.00
  sub23             GreenRoof           238.15      0.00      0.00    101.81      0.00      7.05    143.39       -0.00
  sub3              GreenRoof           238.15      0.00      0.00    101.81      0.00      7.05    143.39       -0.00
  sub4              GreenRoof           238.15      0.00      0.00    101.81      0.00      7.05    143.39       -0.00
  sub5              GreenRoof           238.15      0.00      0.00    101.81      0.00      7.05    143.39       -0.00
  sub60             GreenRoof           238.15      0.00      0.00    101.81      0.00      7.05    143.39       -0.00
  sub61             GreenRoof           238.15      0.00      0.00    101.81      0.00      7.05    143.39       -0.00
  sub62             GreenRoof           238.15      0.00      0.00    101.81      0.00      7.05    143.39       -0.00
  sub63             GreenRoof           238.15      0.00      0.00    101.81      0.00      7.05    143.39       -0.00
  sub64             GreenRoof           238.15      0.00      0.00    101.81      0.00      7.05    143.39       -0.00
  sub65             GreenRoof           238.15      0.00      0.00    101.81      0.00      7.05    143.39       -0.00
  sub66             GreenRoof           238.15      0.00      0.00    101.81      0.00      7.05    143.39       -0.00
  sub67             GreenRoof           238.15      0.00      0.00    101.81      0.00      7.05    143.39       -0.00
  sub68             GreenRoof           238.15      0.00      0.00    101.81      0.00      7.05    143.39       -0.00
  sub69             GreenRoof           238.15      0.00      0.00    101.81      0.00      7.05    143.39       -0.00
  sub7              GreenRoof           238.15      0.00      0.00    101.81      0.00      7.05    143.39       -0.00
  sub70             GreenRoof           238.15      0.00      0.00    101.81      0.00      7.05    143.39       -0.00
  sub71             GreenRoof           238.15      0.00      0.00    101.81      0.00      7.05    143.39       -0.00
  sub72             GreenRoof           238.15      0.00      0.00    101.81      0.00      7.05    143.39       -0.00
  sub8              GreenRoof           238.15      0.00      0.00    101.81      0.00      7.05    143.39       -0.00
  sub9              GreenRoof           238.15      0.00      0.00    101.81      0.00      7.05    143.39       -0.00
  
  ******************
  Node Depth Summary
  ******************
  
  ---------------------------------------------------------------------------------
                                 Average  Maximum  Maximum  Time of Max    Reported
                                   Depth    Depth      HGL   Occurrence   Max Depth
  Node                 Type       Meters   Meters   Meters  days hr:min      Meters
  ---------------------------------------------------------------------------------
  HS02004478           JUNCTION     0.47     1.59    10.81     0  01:49        1.58
  HS02004479           JUNCTION     0.55     1.85    11.05     0  01:36        1.85
  HS02004480           JUNCTION     0.51     1.66    10.90     0  01:36        1.63
  HS02004770           JUNCTION     0.49     1.42    11.25     0  01:30        1.42
  HS02004777           JUNCTION     0.51     1.48    11.28     0  01:30        1.48
  HS02004785           JUNCTION     0.41     1.49    11.39     0  01:30        1.49
  HS02004788           JUNCTION     0.38     1.42    11.32     0  01:30        1.42
  HS02004792           JUNCTION     0.48     1.60    11.12     0  01:31        1.60
  HS02004799           JUNCTION     0.59     1.76    10.97     0  01:34        1.76
  HS02004802           JUNCTION     0.58     1.80    10.93     0  02:05        1.80
  HS02004807           JUNCTION     0.57     1.92    11.09     0  01:36        1.92
  HS02004817           JUNCTION     0.89     2.41    11.26     0  02:06        2.41
  HS02004824           JUNCTION     0.46     2.01    11.41     0  01:36        2.01
  HS02004830           JUNCTION     0.45     2.03    11.50     0  01:36        2.03
  HS02004837           JUNCTION     0.41     2.04    11.62     0  01:36        2.04
  HS02004842           JUNCTION     0.70     2.22    11.49     0  01:36        2.22
  HS02004848           JUNCTION     0.40     2.07    11.67     0  01:36        2.07
  HS02004852           JUNCTION     0.41     2.12    11.63     0  01:36        2.12
  HS02004856           JUNCTION     0.46     2.07    11.50     0  01:36        2.07
  HS02004862           JUNCTION     0.42     2.00    11.38     0  01:36        2.00
  HS02004870           JUNCTION     0.42     2.10    11.39     0  01:33        2.10
  HS02004876           JUNCTION     0.48     2.26    11.29     0  01:36        2.26
  HS02004881           JUNCTION     0.40     2.11    11.14     0  02:00        2.10
  HS02004901           JUNCTION     0.49     1.42    11.24     0  01:30        1.42
  WS02001211           JUNCTION     0.67     0.84     5.68     0  02:00        0.84
  WS02001212           JUNCTION     0.41     0.60     5.67     0  01:59        0.60
  WS02001213           JUNCTION     0.65     0.90     5.66     0  02:01        0.90
  WS02003059           JUNCTION     0.71     0.97     5.66     0  02:01        0.97
  WS02003060           JUNCTION     0.44     0.72     5.65     0  02:03        0.72
  WS02003066           JUNCTION     0.27     0.47     6.03     0  02:10        0.47
  WS02003067           JUNCTION     0.60     0.91     6.23     0  01:55        0.91
  WS02003069           JUNCTION     0.49     0.81     5.40     0  02:11        0.81
  WS02003072           JUNCTION     0.55     0.84     5.21     0  02:11        0.84
  WS02003073           JUNCTION     0.33     0.54     4.60     0  02:02        0.54
  WS02004138           JUNCTION     0.13     0.14     7.39     0  00:29        0.14
  WS02004139           JUNCTION     0.60     0.77     5.68     0  02:00        0.77
  WS02004401           JUNCTION     0.97     2.26     8.26     0  01:36        2.26
  WS02004402           JUNCTION     0.98     2.48     8.44     0  01:36        2.48
  WS02004403           JUNCTION     0.97     2.16     8.09     0  01:36        2.16
  WS02004404           JUNCTION     1.02     1.97     7.82     0  01:20        1.95
  WS02004405           JUNCTION     1.00     1.90     7.75     0  02:10        1.89
  WS02004406           JUNCTION     0.97     1.76     7.59     0  02:04        1.76
  WS02004407           JUNCTION     0.39     1.08     7.40     0  02:10        1.08
  WS02004409           JUNCTION     0.69     1.50     7.27     0  02:05        1.50
  WS02004410           JUNCTION     0.68     1.39     7.11     0  02:10        1.39
  WS02004411           JUNCTION     0.66     1.29     6.97     0  02:10        1.29
  WS02004412           JUNCTION     0.65     1.16     6.80     0  02:05        1.16
  WS02004413           JUNCTION     0.76     1.18     6.65     0  02:10        1.17
  WS02006109           JUNCTION     1.29     2.64     9.26     0  01:31        2.64
  WS02006110           JUNCTION     1.19     2.48     9.07     0  02:08        2.48
  WS02006111           JUNCTION     0.67     2.14     8.85     0  01:20        1.99
  WS02006112           JUNCTION     1.24     2.68     8.56     0  01:20        2.68
  WS02006113           JUNCTION     0.75     2.48     9.37     0  01:36        2.48
  WS02006115           JUNCTION     0.93     2.31     8.45     0  01:20        2.25
  WS02006116           JUNCTION     0.98     2.33     8.37     0  01:36        2.33
  WS02006228           JUNCTION     1.41     3.03     9.68     0  01:36        3.03
  WS02006229           JUNCTION     1.45     3.25     9.94     0  01:36        3.25
  WS02006230           JUNCTION     1.30     2.65     9.39     0  01:24        2.65
  WS02006231           JUNCTION     0.98     2.24     9.36     0  01:36        2.24
  WS02006232           JUNCTION     1.05     2.18     9.22     0  01:24        2.18
  WS02006234           JUNCTION     0.92     1.96     9.12     0  01:23        1.96
  WS02006235           JUNCTION     0.93     1.97     9.14     0  01:36        1.94
  WS02006238           JUNCTION     0.95     1.98     9.12     0  01:36        1.95
  WS02006239           JUNCTION     0.88     2.02     9.23     0  01:36        2.02
  WS02006240           JUNCTION     0.81     2.10     9.39     0  01:36        2.10
  WS02006242           JUNCTION     0.83     1.55     8.82     0  01:18        1.55
  WS02006243           JUNCTION     0.72     1.48     8.90     0  01:18        1.48
  WS02006245           JUNCTION     0.69     1.56     9.04     0  01:19        1.28
  WS02006247           JUNCTION     0.68     1.47     8.97     0  01:19        1.26
  WS02006248           JUNCTION     0.63     1.10     8.69     0  01:19        1.10
  WS02006249           JUNCTION     0.64     1.09     8.69     0  01:19        1.09
  WS02006251           JUNCTION     0.92     2.21     9.88     0  01:20        2.21
  WS02006252           JUNCTION     0.62     1.50     9.74     0  00:00        1.50
  WS02006253           JUNCTION     1.12     3.37    11.02     0  02:01        3.37
  WS02006256           JUNCTION     1.28     2.35     9.28     0  00:00        2.35
  WS02006280           JUNCTION     0.57     1.78    10.05     0  01:36        1.74
  WS02006284           JUNCTION     0.81     1.96    10.36     0  01:36        1.95
  WS02006287           JUNCTION     0.55     1.74    10.70     0  01:47        1.74
  WSF200               JUNCTION     0.28     0.55     5.78     0  02:03        0.55
  YS02001580           JUNCTION     0.21     1.05     9.59     0  01:28        0.77
  YS02001583           JUNCTION     0.25     1.01     9.51     0  01:28        0.83
  YS02001586           JUNCTION     0.37     1.13     9.30     0  01:28        1.13
  YS02001590           JUNCTION     0.50     1.40     9.26     0  01:36        1.40
  YS02001593           JUNCTION     0.43     1.35     9.21     0  01:36        1.30
  YS02001596           JUNCTION     0.57     1.70     9.12     0  01:36        1.65
  YS02001600           JUNCTION     0.66     1.87     9.00     0  01:36        1.87
  YS02001601           JUNCTION     0.85     2.06     8.90     0  01:28        2.06
  YS02001602           JUNCTION     0.75     1.87     8.77     0  01:34        1.87
  YS02001605           JUNCTION     0.70     1.78     8.68     0  02:13        1.78
  YS02001607           JUNCTION     0.67     1.68     8.53     0  01:36        1.68
  YS02001610           JUNCTION     0.71     1.68     8.48     0  01:35        1.68
  YS02001613           JUNCTION     0.68     1.70     8.54     0  01:36        1.70
  YS02001616           JUNCTION     0.61     1.61     8.52     0  01:51        1.61
  YS02001619           JUNCTION     0.59     1.61     8.54     0  01:51        1.61
  YS02001622           JUNCTION     0.58     1.62     8.52     0  01:36        1.62
  YS02001625           JUNCTION     0.83     1.78     8.38     0  01:35        1.78
  YS02001629           JUNCTION     0.74     1.85     8.40     0  01:36        1.85
  YS02001633           JUNCTION     0.83     2.08     8.53     0  01:36        2.08
  YS02001641           JUNCTION     0.81     2.10     8.54     0  01:36        2.10
  YS02001644           JUNCTION     0.80     1.92     8.35     0  01:37        1.92
  YS02001647           JUNCTION     0.61     1.79     8.40     0  01:57        1.79
  YS02001649           JUNCTION     0.70     2.05     8.44     0  01:55        2.05
  YS02001652           JUNCTION     0.59     2.15     8.75     0  02:00        2.15
  YS02001655           JUNCTION     0.49     2.20     9.05     0  01:58        2.20
  YS02001658           JUNCTION     0.39     2.30     9.44     0  01:58        2.30
  YS02001661           JUNCTION     0.36     2.44     9.85     0  02:00        2.44
  YS02001664           JUNCTION     0.18     2.31    10.23     0  01:58        2.31
  YS02001745           JUNCTION     0.23     1.89     9.41     0  02:01        1.89
  YS02001748           JUNCTION     0.37     2.09     9.17     0  02:01        2.09
  YS02001751           JUNCTION     0.44     2.07     8.95     0  02:01        2.07
  YS02001754           JUNCTION     0.55     2.11     8.72     0  02:01        2.11
  YS02001757           JUNCTION     0.74     2.21     8.47     0  01:57        2.21
  YS02001759           JUNCTION     0.69     2.21     8.57     0  01:57        2.21
  YS02001762           JUNCTION     0.68     2.15     8.55     0  01:57        2.15
  YS02001765           JUNCTION     0.65     2.09     8.54     0  01:37        2.09
  YS02001767           JUNCTION     0.64     2.03     8.52     0  01:37        2.03
  YS02001770           JUNCTION     0.64     1.95     8.44     0  01:37        1.95
  YS02001774           JUNCTION     0.71     2.05     8.47     0  01:37        2.05
  YS02001779           JUNCTION     0.52     1.68     8.37     0  01:37        1.68
  YS02001783           JUNCTION     0.40     1.49     7.63     0  01:58        1.48
  YS02001784           JUNCTION     0.39     1.32     7.38     0  02:02        1.31
  YS02001786           JUNCTION     0.32     1.00     7.03     0  02:02        0.99
  YS02001788           JUNCTION     0.23     0.69     6.67     0  02:02        0.69
  YS02001790           JUNCTION     0.27     0.78     6.43     0  02:01        0.75
  YS02001791           JUNCTION     0.16     0.47     5.94     0  02:02        0.47
  YS02001793           JUNCTION     0.09     0.38     5.21     0  02:02        0.36
  YS02001882           JUNCTION     0.51     1.83     8.55     0  02:01        1.82
  YS02001884           JUNCTION     0.60     1.93     8.55     0  01:57        1.93
  YS02001887           JUNCTION     0.67     2.00     8.54     0  01:57        2.00
  YS02001890           JUNCTION     0.69     1.81     8.32     0  01:38        1.81
  YS02001895           JUNCTION     0.47     1.58     8.32     0  01:38        1.58
  YS02001898           JUNCTION     0.47     1.58     8.32     0  01:38        1.58
  YS02001901           JUNCTION     0.58     1.70     8.31     0  01:38        1.70
  YS02001904           JUNCTION     0.56     1.66     8.29     0  01:38        1.66
  YS02001907           JUNCTION     0.88     1.96     8.25     0  01:38        1.96
  YS02001910           JUNCTION     0.70     2.01     8.52     0  02:00        2.01
  YS02001915           JUNCTION     0.53     2.00     8.72     0  01:54        2.00
  YS02001918           JUNCTION     0.36     1.81     8.88     0  01:57        1.81
  YS02001920           JUNCTION     0.44     2.03     9.04     0  01:59        2.03
  YS02001923           JUNCTION     0.30     1.92     9.18     0  02:00        1.91
  YS02001926           JUNCTION     0.31     1.88     9.33     0  01:59        1.87
  YS02001929           JUNCTION     0.22     1.78     9.47     0  01:59        1.78
  YS02006553           JUNCTION     0.89     2.14     8.42     0  02:02        2.13
  YS02006556           JUNCTION     0.86     2.33     8.64     0  02:00        2.33
  YS02006558           JUNCTION     0.91     2.50     8.77     0  01:58        2.50
  YS02006561           JUNCTION     0.26     1.21     7.87     0  01:58        1.20
  YS02163301           JUNCTION     0.77     2.03     8.55     0  01:36        2.03
  YS02163601           JUNCTION     0.87     2.08     8.48     0  01:37        2.08
  YS02164001           JUNCTION     0.80     2.07     8.53     0  01:37        2.07
  YSB1154              JUNCTION     0.71     2.10    11.16     0  01:36        2.10
  YSB1171              JUNCTION     0.83     1.95    10.85     0  01:34        1.95
  YSB1174              JUNCTION     0.65     1.95    11.06     0  01:36        1.95
  YSB6556              JUNCTION     0.59     1.80    10.97     0  01:36        1.80
  CC-1                 OUTFALL      0.00     0.00     0.00     0  00:00        0.00
  CC-2                 OUTFALL      0.00     0.00     0.00     0  00:00        0.00
  JK-1                 OUTFALL      0.00     0.00     0.00     0  00:00        0.00
  JK-2                 OUTFALL      0.00     0.00     0.00     0  00:00        0.00
  WSC                  OUTFALL      0.33     0.54     1.21     0  02:02        0.54
  CC-storage           STORAGE      1.13     2.24     7.74     0  02:41        2.24
  JK-storage           STORAGE      2.36     4.28     5.08     0  02:04        4.27
  XR-storage           STORAGE      7.86     9.26     7.26     0  08:00        9.26
  
  
  *******************
  Node Inflow Summary
  *******************
  
  -------------------------------------------------------------------------------------------------
                                  Maximum  Maximum                  Lateral       Total        Flow
                                  Lateral    Total  Time of Max      Inflow      Inflow     Balance
                                   Inflow   Inflow   Occurrence      Volume      Volume       Error
  Node                 Type           LPS      LPS  days hr:min    10^6 ltr    10^6 ltr     Percent
  -------------------------------------------------------------------------------------------------
  HS02004478           JUNCTION      0.00  2304.53     0  01:47           0        14.9      -0.008
  HS02004479           JUNCTION      0.00   375.65     0  01:38           0        1.48       0.074
  HS02004480           JUNCTION      0.00  2020.54     0  01:34           0        10.5       0.019
  HS02004770           JUNCTION   6790.19  7211.61     0  02:01        10.4          11       0.027
  HS02004777           JUNCTION      0.03   679.27     0  01:31    0.000864        2.68       0.194
  HS02004785           JUNCTION      0.15   678.63     0  01:31     0.00432        2.68       0.011
  HS02004788           JUNCTION   2480.57  2480.57     0  02:01        3.69           6       0.003
  HS02004792           JUNCTION   8369.29  9458.99     0  02:01        14.2        19.5       0.001
  HS02004799           JUNCTION   1484.10  2626.20     0  02:01        1.89        10.6       0.036
  HS02004802           JUNCTION      0.00  1235.01     0  02:13           0        5.04       0.078
  HS02004807           JUNCTION   1825.53  3022.19     0  02:01        2.36        6.65       0.069
  HS02004817           JUNCTION      0.60  1197.08     0  02:00      0.0173        4.35       0.389
  HS02004824           JUNCTION   2715.37  3534.68     0  02:01        4.58        6.51       0.007
  HS02004830           JUNCTION      0.15   841.31     0  02:01     0.00432        2.25       0.052
  HS02004837           JUNCTION   1694.59  1694.59     0  02:01        2.51        3.16       0.028
  HS02004842           JUNCTION      0.00  2124.73     0  02:01           0        3.02       0.439
  HS02004848           JUNCTION   2625.95  2625.95     0  02:02        4.91        5.75      -0.000
  HS02004852           JUNCTION      0.00   909.57     0  01:33           0         3.9       0.005
  HS02004856           JUNCTION    751.16  1630.65     0  02:01       0.959        4.86       0.040
  HS02004862           JUNCTION   1163.84  2166.80     0  02:02        2.05        6.64       0.003
  HS02004870           JUNCTION    999.23  1294.51     0  02:21        1.29        6.16       0.004
  HS02004876           JUNCTION    993.62  1919.60     0  02:01        1.47        7.61       0.012
  HS02004881           JUNCTION    533.12  1738.37     0  02:06       0.692        8.07       0.005
  HS02004901           JUNCTION   1579.77  1845.56     0  02:01        2.23        3.37       0.053
  WS02001211           JUNCTION      7.35   266.10     0  01:26       0.212        5.44       0.611
  WS02001212           JUNCTION      0.00   233.29     0  01:29           0        5.41       0.290
  WS02001213           JUNCTION      0.00   247.20     0  01:29           0         5.4       0.330
  WS02003059           JUNCTION      0.00   242.42     0  01:23           0         5.4       0.593
  WS02003060           JUNCTION     16.53  1614.96     0  02:03       0.476        17.3       0.084
  WS02003066           JUNCTION      0.00  1399.98     0  02:10           0        11.5       0.012
  WS02003067           JUNCTION      0.00  1401.94     0  02:10           0        11.5       0.037
  WS02003069           JUNCTION      0.32  1614.27     0  02:03     0.00922        17.3       0.089
  WS02003072           JUNCTION      0.00  1614.11     0  02:11           0        17.3       0.120
  WS02003073           JUNCTION      1.82  1615.90     0  02:12      0.0524        17.3       0.124
  WS02004138           JUNCTION      0.00   380.00     0  00:00           0        5.25       0.052
  WS02004139           JUNCTION      0.32   190.95     0  00:29     0.00924        5.26       0.509
  WS02004401           JUNCTION      0.00  1400.67     0  02:10           0        11.6       0.090
  WS02004402           JUNCTION      0.00  1400.68     0  02:04           0        11.6       0.091
  WS02004403           JUNCTION      0.00  1400.88     0  02:10           0        11.6       0.088
  WS02004404           JUNCTION      0.16  1401.35     0  02:10     0.00467        11.6       0.076
  WS02004405           JUNCTION      0.04  1402.32     0  02:10      0.0011        11.6       0.107
  WS02004406           JUNCTION      0.00  1401.64     0  02:10           0        11.5       0.182
  WS02004407           JUNCTION      0.00  1401.57     0  02:10           0        11.5       0.013
  WS02004409           JUNCTION      0.00  1400.54     0  01:58           0        11.5       0.026
  WS02004410           JUNCTION      0.00  1400.51     0  02:10           0        11.5       0.039
  WS02004411           JUNCTION      0.00  1400.68     0  01:58           0        11.5       0.051
  WS02004412           JUNCTION      0.00  1400.67     0  02:10           0        11.5       0.066
  WS02004413           JUNCTION      0.00  1401.08     0  02:10           0        11.5       0.119
  WS02006109           JUNCTION      1.23  1289.34     0  01:47      0.0354        11.2       0.073
  WS02006110           JUNCTION      0.00  1132.81     0  01:36           0          10       0.073
  WS02006111           JUNCTION      0.00  1125.85     0  01:36           0          10       0.004
  WS02006112           JUNCTION   1275.25  2112.59     0  02:01        1.92        11.9       0.164
  WS02006113           JUNCTION      0.00  1131.16     0  01:36           0          10       0.024
  WS02006115           JUNCTION      0.00  1401.07     0  02:10           0        11.6       0.060
  WS02006116           JUNCTION      0.00  1400.79     0  02:10           0        11.6      -0.014
  WS02006228           JUNCTION      0.00  1288.60     0  01:48           0        11.2       0.023
  WS02006229           JUNCTION      0.00  2305.40     0  01:47           0        16.9       0.039
  WS02006230           JUNCTION     10.28  1025.79     0  01:47       0.296        7.69       0.124
  WS02006231           JUNCTION      0.00   539.00     0  03:54           0        4.67      -0.127
  WS02006232           JUNCTION      0.00   539.56     0  03:54           0        4.64       0.090
  WS02006234           JUNCTION      0.00   537.05     0  03:54           0        4.61      -0.041
  WS02006235           JUNCTION      0.00   530.96     0  03:54           0         4.4       0.024
  WS02006238           JUNCTION      0.00   427.76     0  01:36           0         4.2      -0.058
  WS02006239           JUNCTION      0.00   419.59     0  03:52           0        4.18      -0.072
  WS02006240           JUNCTION      0.00   419.53     0  03:52           0        4.16      -0.026
  WS02006242           JUNCTION      0.00   419.50     0  03:52           0        4.15      -0.008
  WS02006243           JUNCTION      0.00   481.34     0  01:18           0        3.28      -0.047
  WS02006245           JUNCTION      0.00   419.43     0  03:52           0        3.28       0.227
  WS02006247           JUNCTION      0.00   440.55     0  01:19           0        3.28      -0.000
  WS02006248           JUNCTION      0.00   490.66     0  01:19           0        3.64      -0.010
  WS02006249           JUNCTION      0.00  1411.09     0  02:02           0        9.86       0.043
  WS02006251           JUNCTION      0.08  1867.45     0  02:01     0.00222        10.7      -0.011
  WS02006252           JUNCTION      0.00   820.21     0  02:00           0        4.75      -0.015
  WS02006253           JUNCTION    132.89  1867.67     0  02:01       0.191        8.28      -0.002
  WS02006256           JUNCTION      0.00   300.00     0  00:00           0        2.21      -0.083
  WS02006280           JUNCTION      0.00  2304.02     0  01:47           0        14.9      -0.002
  WS02006284           JUNCTION      0.10  2303.96     0  01:47     0.00275        14.9       0.012
  WS02006287           JUNCTION      0.00  2304.97     0  01:47           0        14.9       0.017
  WSF200               JUNCTION      0.00  1400.67     0  01:55           0        11.5       0.005
  YS02001580           JUNCTION      0.00    69.21     0  01:28           0      0.0043      -0.106
  YS02001583           JUNCTION      0.00   105.27     0  01:28           0       0.016      -3.056
  YS02001586           JUNCTION   3443.39  3443.39     0  02:01           6        6.01       0.020
  YS02001590           JUNCTION      0.00   324.40     0  01:36           0        2.18      -0.018
  YS02001593           JUNCTION      0.00   319.71     0  01:36           0        2.18       0.010
  YS02001596           JUNCTION      0.00   318.16     0  02:43           0        2.18      -0.009
  YS02001600           JUNCTION      0.00   318.12     0  02:43           0        2.18       0.005
  YS02001601           JUNCTION   5363.59  5681.35     0  02:01        7.71        9.88       0.008
  YS02001602           JUNCTION      0.00   496.30     0  01:27           0        3.15       0.012
  YS02001605           JUNCTION      0.00   496.20     0  01:27           0        2.82       0.018
  YS02001607           JUNCTION      0.00   495.95     0  01:28           0        2.82       0.064
  YS02001610           JUNCTION      0.00   956.85     0  02:11           0         4.3       0.056
  YS02001613           JUNCTION      0.00   620.37     0  02:11           0        2.97       0.052
  YS02001616           JUNCTION      0.00   621.84     0  02:11           0        2.97       0.010
  YS02001619           JUNCTION   6014.85  6014.85     0  02:01        9.52          11       0.002
  YS02001622           JUNCTION      0.00  1054.02     0  02:00           0        6.51      -0.003
  YS02001625           JUNCTION      0.00  1505.51     0  02:06           0        7.63       0.161
  YS02001629           JUNCTION      0.00  1139.05     0  02:04           0        4.42      -0.024
  YS02001633           JUNCTION   3990.79  3990.79     0  02:01        5.81        8.34       0.039
  YS02001641           JUNCTION      0.00  1293.88     0  01:34           0        5.67       0.048
  YS02001644           JUNCTION   3559.41  5311.11     0  02:01        4.93        11.6       0.027
  YS02001647           JUNCTION      0.00  1626.57     0  01:34           0        6.34       0.004
  YS02001649           JUNCTION      0.00  3120.08     0  02:01           0        10.1       0.001
  YS02001652           JUNCTION      0.00  2429.35     0  02:03           0        4.52      -0.028
  YS02001655           JUNCTION      0.15  2731.44     0  02:03     0.00443        4.63       0.028
  YS02001658           JUNCTION      0.00  2783.86     0  02:02           0        4.64      -0.026
  YS02001661           JUNCTION      0.00  2783.84     0  02:02           0        4.63      -0.078
  YS02001664           JUNCTION   3415.03  3415.03     0  02:01        4.73        4.73       0.009
  YS02001745           JUNCTION   2066.05  2066.05     0  02:01        2.69        2.69       0.041
  YS02001748           JUNCTION      0.04  2065.56     0  02:01      0.0013        2.69      -0.071
  YS02001751           JUNCTION      0.01  2065.37     0  02:01    0.000317         2.7       0.020
  YS02001754           JUNCTION      0.26  2067.33     0  02:01     0.00749        2.71      -0.049
  YS02001757           JUNCTION      0.00  3500.14     0  02:01           0          16       0.013
  YS02001759           JUNCTION   2873.28  2873.28     0  02:01        3.86        5.91      -0.004
  YS02001762           JUNCTION      0.00   721.79     0  02:03           0        2.51      -0.000
  YS02001765           JUNCTION      0.00   721.53     0  02:03           0        2.51       0.000
  YS02001767           JUNCTION      0.54   722.15     0  02:03      0.0154        2.51       0.005
  YS02001770           JUNCTION   4180.85  4892.33     0  02:01        5.68        6.18      -0.013
  YS02001774           JUNCTION      0.00   852.13     0  01:58           0        1.73       0.065
  YS02001779           JUNCTION      0.01   851.81     0  02:04    0.000144        1.68      -0.011
  YS02001783           JUNCTION      0.00  1322.15     0  02:02           0        7.01       0.003
  YS02001784           JUNCTION      1.06  1322.87     0  02:02      0.0305        7.04       0.007
  YS02001786           JUNCTION      0.06  1322.96     0  02:02     0.00162        7.04       0.009
  YS02001788           JUNCTION      0.07  1322.85     0  02:02     0.00204        7.04       0.004
  YS02001790           JUNCTION      0.15  1346.99     0  02:02     0.00446        7.05       0.032
  YS02001791           JUNCTION      0.00  1413.56     0  02:01           0        7.04      -0.055
  YS02001793           JUNCTION      0.00  1435.77     0  02:02           0        7.05       0.005
  YS02001882           JUNCTION      0.00    33.68     0  01:33           0      0.0153       3.776
  YS02001884           JUNCTION      0.00    47.12     0  01:17           0      0.0514       4.855
  YS02001887           JUNCTION   2987.72  2987.72     0  02:01        3.91        3.95       0.110
  YS02001890           JUNCTION      0.00  2052.03     0  02:04           0        3.71       0.134
  YS02001895           JUNCTION      0.00   518.38     0  01:56           0        2.29       0.092
  YS02001898           JUNCTION      0.00   518.46     0  01:55           0        2.28      -0.011
  YS02001901           JUNCTION      0.00   518.70     0  01:58           0        2.29       0.148
  YS02001904           JUNCTION      0.00   518.20     0  01:55           0         2.3       0.115
  YS02001907           JUNCTION      0.00  4670.24     0  02:01           0        9.88       0.182
  YS02001910           JUNCTION      0.00  1993.23     0  02:07           0        6.16       0.113
  YS02001915           JUNCTION   3896.79  5118.27     0  02:01        5.16        7.83       0.021
  YS02001918           JUNCTION      0.00  1682.19     0  02:02           0        2.86       0.004
  YS02001920           JUNCTION      2.87  1681.90     0  02:02      0.0827        2.86       0.036
  YS02001923           JUNCTION      0.04  1678.97     0  02:01     0.00109        2.77      -0.008
  YS02001926           JUNCTION      0.05  1678.94     0  02:02      0.0015        2.77      -0.003
  YS02001929           JUNCTION   1951.81  1951.81     0  02:01        2.81        2.81      -0.004
  YS02006553           JUNCTION      0.00  2160.67     0  02:01           0        4.43       0.268
  YS02006556           JUNCTION      0.00  2160.77     0  02:01           0        4.44       0.177
  YS02006558           JUNCTION   4255.49  4255.49     0  02:01        5.61        8.59       0.040
  YS02006561           JUNCTION      0.00  1321.82     0  02:02           0        7.01       0.002
  YS02163301           JUNCTION      0.00  1138.95     0  02:07           0        4.43       0.032
  YS02163601           JUNCTION      0.11  1296.53     0  01:34     0.00317        5.66       0.084
  YS02164001           JUNCTION      0.00  1296.28     0  01:34           0        5.66       0.042
  YSB1154              JUNCTION   1717.16  1717.16     0  02:01        2.41        2.41       0.059
  YSB1171              JUNCTION      0.00  1630.36     0  02:05           0        4.14       0.152
  YSB1174              JUNCTION   1404.84  1404.84     0  02:01        1.83        1.83       0.066
  YSB6556              JUNCTION      0.00   725.69     0  02:04           0           2       0.057
  CC-1                 OUTFALL       0.00   683.00     0  00:00           0         6.4       0.000
  CC-2                 OUTFALL       0.00   683.00     0  00:00           0        6.16       0.000
  JK-1                 OUTFALL       0.00  1000.00     0  00:00           0        4.79       0.000
  JK-2                 OUTFALL       0.00  1000.00     0  00:00           0      0.0484       0.000
  WSC                  OUTFALL       0.00  1615.83     0  02:02           0        17.3       0.000
  CC-storage           STORAGE       0.00  2921.94     0  01:45           0        18.1      -0.141
  JK-storage           STORAGE       0.00  1391.59     0  02:02           0         7.2      -0.001
  XR-storage           STORAGE     200.00   200.00     0  00:00        5.76        6.36       0.001
  
  
  **********************
  Node Surcharge Summary
  **********************
  
  Surcharging occurs when water rises above the top of the highest conduit.
  ---------------------------------------------------------------------
                                               Max. Height   Min. Depth
                                   Hours       Above Crown    Below Rim
  Node                 Type      Surcharged         Meters       Meters
  ---------------------------------------------------------------------
  HS02004478           JUNCTION        1.42          0.666        0.274
  HS02004479           JUNCTION        1.59          1.050        0.000
  HS02004480           JUNCTION        1.62          0.950        0.150
  HS02004770           JUNCTION        1.53          0.720        0.000
  HS02004777           JUNCTION        1.54          0.780        0.000
  HS02004785           JUNCTION        1.47          0.790        0.000
  HS02004788           JUNCTION        1.45          0.720        0.000
  HS02004792           JUNCTION        1.59          0.900        0.000
  HS02004799           JUNCTION        1.73          1.060        0.000
  HS02004802           JUNCTION        1.64          1.093        0.117
  HS02004807           JUNCTION        1.61          1.220        0.000
  HS02004817           JUNCTION        1.95          1.714        0.026
  HS02004824           JUNCTION        1.44          1.310        0.000
  HS02004830           JUNCTION        1.40          1.330        0.000
  HS02004837           JUNCTION        1.32          1.340        0.000
  HS02004842           JUNCTION        1.54          1.520        0.000
  HS02004848           JUNCTION        1.29          1.370        0.000
  HS02004852           JUNCTION        1.33          1.420        0.000
  HS02004856           JUNCTION        1.31          1.300        0.000
  HS02004862           JUNCTION        1.37          1.300        0.000
  HS02004870           JUNCTION        1.40          1.400        0.000
  HS02004876           JUNCTION        1.49          1.560        0.000
  HS02004881           JUNCTION        1.47          1.409        0.041
  HS02004901           JUNCTION        1.53          0.720        0.000
  WS02004401           JUNCTION        2.11          1.265        0.395
  WS02004402           JUNCTION        2.14          1.482        0.258
  WS02004403           JUNCTION        2.15          1.165        0.865
  WS02004404           JUNCTION        2.32          0.970        1.810
  WS02004405           JUNCTION        2.28          0.897        1.903
  WS02004406           JUNCTION        2.24          0.762        1.688
  WS02004407           JUNCTION        0.39          0.084        2.256
  WS02004409           JUNCTION        1.78          0.501        1.859
  WS02004410           JUNCTION        1.78          0.391        2.149
  WS02004411           JUNCTION        1.76          0.290        2.240
  WS02004412           JUNCTION        1.71          0.158        2.152
  WS02004413           JUNCTION        1.92          0.178        2.022
  WS02006109           JUNCTION        2.91          1.820        0.000
  WS02006110           JUNCTION        2.81          1.575        0.275
  WS02006111           JUNCTION        1.90          1.330        0.540
  WS02006112           JUNCTION        2.83          1.680        0.000
  WS02006113           JUNCTION        1.92          1.677        0.253
  WS02006115           JUNCTION        2.02          1.302        0.948
  WS02006116           JUNCTION        2.04          1.265        1.025
  WS02006228           JUNCTION        2.90          2.200        0.000
  WS02006229           JUNCTION        1.79          1.070        0.000
  WS02006230           JUNCTION        2.56          1.570        0.000
  WS02006231           JUNCTION        2.79          1.530        0.000
  WS02006232           JUNCTION        2.83          1.480        0.000
  WS02006234           JUNCTION        2.78          1.240        0.000
  WS02006235           JUNCTION        2.80          1.262        0.028
  WS02006238           JUNCTION        2.81          1.260        0.170
  WS02006239           JUNCTION        2.79          1.276        0.014
  WS02006240           JUNCTION        2.78          1.390        0.000
  WS02006242           JUNCTION        2.80          0.820        0.000
  WS02006243           JUNCTION        2.77          0.770        0.000
  WS02006245           JUNCTION        2.77          0.850        0.000
  WS02006247           JUNCTION        2.77          0.760        0.000
  WS02006248           JUNCTION        2.76          0.380        0.000
  WS02006249           JUNCTION        2.76          0.390        0.000
  WS02006251           JUNCTION        2.73          1.180        0.000
  WS02006252           JUNCTION        2.88          1.100        0.000
  WS02006253           JUNCTION        2.73          2.334        0.146
  WS02006256           JUNCTION        4.88          2.050        0.000
  WS02006280           JUNCTION        1.73          0.726        0.054
  WS02006284           JUNCTION        1.66          0.685        0.115
  WS02006287           JUNCTION        1.55          0.741        0.149
  YS02001580           JUNCTION        1.51          0.450        0.000
  YS02001583           JUNCTION        1.52          0.373        0.127
  YS02001586           JUNCTION        1.63          0.510        0.000
  YS02001590           JUNCTION        1.70          0.750        0.000
  YS02001593           JUNCTION        1.70          0.728        0.112
  YS02001596           JUNCTION        1.81          0.967        0.103
  YS02001600           JUNCTION        1.93          1.190        0.000
  YS02001601           JUNCTION        2.16          1.440        0.000
  YS02001602           JUNCTION        2.10          1.270        0.000
  YS02001605           JUNCTION        2.07          1.180        0.000
  YS02001607           JUNCTION        1.72          0.680        0.000
  YS02001610           JUNCTION        1.75          0.680        0.000
  YS02001613           JUNCTION        1.72          0.700        0.000
  YS02001616           JUNCTION        1.68          0.610        0.000
  YS02001619           JUNCTION        1.67          0.610        0.000
  YS02001622           JUNCTION        1.67          0.620        0.000
  YS02001625           JUNCTION        1.85          0.780        0.000
  YS02001629           JUNCTION        1.63          0.470        0.000
  YS02001633           JUNCTION        1.91          1.060        0.000
  YS02001641           JUNCTION        1.88          1.100        0.000
  YS02001644           JUNCTION        1.86          0.920        0.000
  YS02001647           JUNCTION        1.63          0.793        0.107
  YS02001649           JUNCTION        1.77          1.050        0.000
  YS02001652           JUNCTION        1.60          1.122        0.008
  YS02001655           JUNCTION        1.46          1.200        0.000
  YS02001658           JUNCTION        1.18          1.300        0.000
  YS02001661           JUNCTION        0.48          1.374        0.016
  YS02001664           JUNCTION        0.25          1.310        0.000
  YS02001745           JUNCTION        0.25          0.889        0.461
  YS02001748           JUNCTION        1.02          1.013        0.177
  YS02001751           JUNCTION        1.40          1.068        0.132
  YS02001754           JUNCTION        1.54          1.064        0.086
  YS02001757           JUNCTION        1.85          1.210        0.000
  YS02001759           JUNCTION        1.76          1.210        0.000
  YS02001762           JUNCTION        1.74          1.150        0.000
  YS02001765           JUNCTION        1.69          1.093        0.007
  YS02001767           JUNCTION        1.67          1.030        0.000
  YS02001770           JUNCTION        1.65          0.920        0.000
  YS02001774           JUNCTION        1.72          1.050        0.000
  YS02001779           JUNCTION        1.53          0.680        0.000
  YS02001783           JUNCTION        1.32          0.688        0.912
  YS02001784           JUNCTION        1.29          0.516        0.974
  YS02001786           JUNCTION        1.12          0.196        1.234
  YS02001882           JUNCTION        1.23          0.830        0.000
  YS02001884           JUNCTION        1.25          0.870        0.000
  YS02001887           JUNCTION        1.30          0.950        0.000
  YS02001890           JUNCTION        1.33          0.760        0.000
  YS02001895           JUNCTION        1.21          0.578        0.172
  YS02001898           JUNCTION        1.20          0.551        0.189
  YS02001901           JUNCTION        1.28          0.698        0.172
  YS02001904           JUNCTION        1.27          0.658        0.192
  YS02001907           JUNCTION        1.64          0.950        0.000
  YS02001910           JUNCTION        1.37          1.014        0.086
  YS02001915           JUNCTION        1.23          1.000        0.000
  YS02001918           JUNCTION        1.10          0.810        0.000
  YS02001920           JUNCTION        1.11          1.033        0.107
  YS02001923           JUNCTION        0.52          0.709        0.111
  YS02001926           JUNCTION        0.56          0.882        0.018
  YS02001929           JUNCTION        0.37          0.780        0.000
  YS02006553           JUNCTION        1.66          1.136        0.054
  YS02006556           JUNCTION        1.52          1.292        0.058
  YS02006558           JUNCTION        1.49          1.400        0.000
  YS02006561           JUNCTION        1.04          0.410        0.740
  YS02163301           JUNCTION        1.88          1.030        0.000
  YS02163601           JUNCTION        1.96          1.080        0.000
  YS02164001           JUNCTION        1.88          1.071        0.029
  YSB1154              JUNCTION        1.81          1.400        0.000
  YSB1171              JUNCTION        1.81          1.100        0.000
  YSB1174              JUNCTION        1.76          1.250        0.000
  YSB6556              JUNCTION        1.70          1.100        0.000
  
  
  *********************
  Node Flooding Summary
  *********************
  
  Flooding refers to all water that overflows a node, whether it ponds or not.
  --------------------------------------------------------------------------
                                                             Total   Maximum
                                 Maximum   Time of Max       Flood    Ponded
                        Hours       Rate    Occurrence      Volume     Depth
  Node                 Flooded       LPS   days hr:min    10^6 ltr    Meters
  --------------------------------------------------------------------------
  HS02004479              0.01      0.96      0  01:36       0.000     0.000
  HS02004770              1.19   6942.00      0  02:01       7.497     0.000
  HS02004777              0.01     16.01      0  01:30       0.000     0.000
  HS02004785              0.01     84.10      0  01:30       0.000     0.000
  HS02004788              0.17    968.69      0  02:01       0.314     0.000
  HS02004792              1.18   8315.87      0  02:01      10.769     0.000
  HS02004799              0.75   1319.87      0  02:01       1.010     0.000
  HS02004807              0.64   1788.61      0  02:01       1.567     0.000
  HS02004824              0.56   2338.42      0  02:01       1.854     0.000
  HS02004830              0.01      0.33      0  02:00       0.000     0.000
  HS02004837              0.01      1.22      0  01:36       0.000     0.000
  HS02004842              0.54   2123.55      0  02:01       1.896     0.000
  HS02004848              0.13    475.25      0  02:02       0.128     0.000
  HS02004852              0.01      0.69      0  01:36       0.000     0.000
  HS02004856              0.22    627.29      0  02:01       0.272     0.000
  HS02004862              0.50   2116.28      0  02:02       1.765     0.000
  HS02004870              0.09    182.31      0  01:33       0.026     0.000
  HS02004876              0.17    717.75      0  02:01       0.229     0.000
  HS02004901              1.34   1844.24      0  02:01       3.167     0.000
  WS02006109              1.28    451.24      0  02:05       1.185     0.000
  WS02006112              0.27    713.27      0  02:01       0.317     0.000
  WS02006228              0.01      4.70      0  01:36       0.000     0.000
  WS02006229              0.01      6.23      0  01:36       0.000     0.000
  WS02006230              1.66    573.20      0  01:47       2.760     0.000
  WS02006231              0.01      0.44      0  01:36       0.000     0.000
  WS02006232              0.40      1.37      0  01:36       0.000     0.000
  WS02006234              1.71    129.28      0  01:36       0.773     0.000
  WS02006240              0.01      0.20      0  01:36       0.000     0.000
  WS02006242              1.79    221.27      0  01:18       0.858     0.000
  WS02006243              0.01    352.80      0  01:18       0.001     0.000
  WS02006245              0.01     43.68      0  01:19       0.000     0.000
  WS02006247              0.01    328.54      0  01:19       0.001     0.000
  WS02006248              1.89    386.24      0  01:19       2.161     0.000
  WS02006249              2.70   1350.24      0  01:59       8.034     0.000
  WS02006251              0.10    354.62      0  01:20       0.007     0.000
  WS02006252              1.40    820.21      0  02:03       2.364     0.000
  WS02006256              2.04    293.19      0  00:00       1.447     0.000
  YS02001580              0.01     39.73      0  01:28       0.000     0.000
  YS02001586              1.32   3125.39      0  02:01       3.821     0.000
  YS02001590              0.01      2.08      0  01:36       0.000     0.000
  YS02001600              0.01      2.19      0  01:36       0.000     0.000
  YS02001601              1.58   5280.31      0  02:01       6.737     0.000
  YS02001602              1.48     62.19      0  01:52       0.324     0.000
  YS02001605              0.01      0.14      0  02:13       0.000     0.000
  YS02001607              0.01      0.12      0  01:36       0.000     0.000
  YS02001610              1.40    956.71      0  02:11       2.822     0.000
  YS02001613              0.01      0.38      0  01:36       0.000     0.000
  YS02001616              0.14      2.92      0  02:13       0.000     0.000
  YS02001619              0.49   4341.99      0  02:01       3.009     0.000
  YS02001622              0.01      0.77      0  01:36       0.000     0.000
  YS02001625              1.44   1505.27      0  02:03       5.107     0.000
  YS02001629              0.52    686.87      0  02:04       0.778     0.000
  YS02001633              0.21   1945.96      0  02:01       0.760     0.000
  YS02001641              0.01      5.16      0  01:36       0.000     0.000
  YS02001644              0.94   5308.41      0  02:01       6.204     0.000
  YS02001649              0.23   2273.18      0  02:01       1.094     0.000
  YS02001655              0.12    303.27      0  02:03       0.105     0.000
  YS02001658              0.09     52.22      0  02:02       0.015     0.000
  YS02001664              0.08    628.83      0  02:01       0.100     0.000
  YS02001757              0.01      2.40      0  01:58       0.000     0.000
  YS02001759              0.10    725.99      0  02:01       0.128     0.000
  YS02001762              0.04      1.17      0  02:01       0.000     0.000
  YS02001767              0.01      5.54      0  01:37       0.000     0.000
  YS02001770              0.39   4037.52      0  02:01       2.433     0.000
  YS02001774              0.01     22.15      0  01:37       0.000     0.000
  YS02001779              0.81    851.50      0  02:04       1.663     0.000
  YS02001882              0.01      0.55      0  02:01       0.000     0.000
  YS02001884              0.01      0.88      0  01:59       0.000     0.000
  YS02001887              0.11    933.56      0  02:01       0.196     0.000
  YS02001890              0.62   1536.72      0  02:01       1.420     0.000
  YS02001907              1.01   4669.80      0  02:03       6.877     0.000
  YS02001915              0.32   3122.38      0  02:01       1.661     0.000
  YS02001918              0.17    460.27      0  02:02       0.192     0.000
  YS02001929              0.08    273.84      0  02:01       0.042     0.000
  YS02006558              0.08    772.97      0  02:01       0.115     0.000
  YS02163301              0.01      1.19      0  01:36       0.000     0.000
  YS02163601              0.01      3.17      0  01:37       0.000     0.000
  YSB1154                 0.26    990.13      0  02:01       0.418     0.000
  YSB1171                 0.97   1630.11      0  02:05       3.247     0.000
  YSB1174                 0.16    653.26      0  02:01       0.192     0.000
  YSB6556                 0.30     85.86      0  02:06       0.084     0.000
  
  
  **********************
  Storage Volume Summary
  **********************
  
  --------------------------------------------------------------------------------------------------
                         Average     Avg  Evap Exfil       Maximum     Max    Time of Max    Maximum
                          Volume    Pcnt  Pcnt  Pcnt        Volume    Pcnt     Occurrence    Outflow
  Storage Unit           1000 m3    Full  Loss  Loss       1000 m3    Full    days hr:min        LPS
  --------------------------------------------------------------------------------------------------
  CC-storage               3.145      49     0     0         6.232      97       0  02:41    1783.53
  JK-storage               0.119      41     0     0         0.215      74       0  02:04    2300.00
  XR-storage               0.944      66     0     0         1.111      77       0  08:00     380.00
  
  
  ***********************
  Outfall Loading Summary
  ***********************
  
  -----------------------------------------------------------
                         Flow       Avg       Max       Total
                         Freq      Flow      Flow      Volume
  Outfall Node           Pcnt       LPS       LPS    10^6 ltr
  -----------------------------------------------------------
  CC-1                  49.14    683.00    683.00       6.397
  CC-2                  47.45    683.00    683.00       6.163
  JK-1                  23.51   1000.00   1000.00       4.789
  JK-2                   0.19   1000.00   1000.00       0.048
  WSC                   99.95    781.64   1615.83      17.292
  -----------------------------------------------------------
  System                44.05   4147.64   1615.83      34.689
  
  
  ********************
  Link Flow Summary
  ********************
  
  -----------------------------------------------------------------------------
                                 Maximum  Time of Max   Maximum    Max/    Max/
                                  |Flow|   Occurrence   |Veloc|    Full    Full
  Link                 Type          LPS  days hr:min     m/sec    Flow   Depth
  -----------------------------------------------------------------------------
  1                    CONDUIT   1615.83     0  02:02      3.76    0.56    0.54
  HS02004478WS02006287 CONDUIT   2304.97     0  01:47      2.66    0.65    1.00
  HS02004479HS02004480 CONDUIT    376.94     0  01:38      0.54    0.36    1.00
  HS02004480HS02004478 CONDUIT   2021.33     0  01:34      2.89    8.51    1.00
  HS02004770HS02004777 CONDUIT    679.24     0  01:31      0.97    1.24    1.00
  HS02004777HS02004785 CONDUIT    678.48     0  01:31      1.03    0.83    1.00
  HS02004785HS02004788 CONDUIT    676.97     0  01:31      1.39    5.10    1.00
  HS02004788HS02004792 CONDUIT   1089.71     0  02:07      1.56    0.72    1.00
  HS02004792HS02004799 CONDUIT   1604.31     0  01:31      2.29    0.98    1.00
  HS02004799HS02004480 CONDUIT   1717.71     0  01:31      2.45    2.17    1.00
  HS02004802HS02004478 CONDUIT   1234.39     0  01:59      1.76    1.09    1.00
  HS02004807HS02004802 CONDUIT   1235.01     0  02:13      1.76    2.36    1.00
  HS02004817HS02004807 CONDUIT   1197.06     0  01:57      1.71    0.71    1.00
  HS02004817HS02004824 CONDUIT   1196.48     0  02:00      1.71    0.54    1.00
  HS02004824HS02004830 CONDUIT    841.39     0  02:01      1.20    1.10    1.00
  HS02004830HS02004837 CONDUIT    841.16     0  02:01      1.20    0.84    1.00
  HS02004837HS02004842 CONDUIT    855.10     0  02:01      1.22    0.51    1.00
  HS02004842HS02004848 CONDUIT   1269.84     0  02:06      1.81    0.74    1.00
  HS02004848HS02004852 CONDUIT    909.57     0  01:33      1.49    1.03    1.00
  HS02004852HS02004856 CONDUIT    881.28     0  02:05      1.40    1.01    1.00
  HS02004856HS02004862 CONDUIT   1002.96     0  02:10      1.63    1.00    1.00
  HS02004862HS02004870 CONDUIT   1127.34     0  02:21      1.85    1.22    1.00
  HS02004870HS02004876 CONDUIT   1294.91     0  02:21      1.85    0.86    1.00
  HS02004876HS02004881 CONDUIT   1523.67     0  02:19      2.43   16.21    1.00
  HS02004881HS02006253 CONDUIT   1738.85     0  02:07      2.79    0.34    1.00
  HS02004901HS02004770 CONDUIT    265.79     0  02:32      0.38    1.00    1.00
  WS02001211WS02001212 CONDUIT    233.29     0  01:29      0.54    0.18    0.72
  WS02001212WS02001213 CONDUIT    247.20     0  01:29      1.04    0.38    0.59
  WS02001213WS02003059 CONDUIT    235.35     0  03:12      0.47    0.39    0.92
  WS02003059WS02003060 CONDUIT    245.62     0  03:11      0.66    0.16    0.84
  WS02003060WS02003069 CONDUIT   1613.95     0  02:03      2.12    0.63    0.64
  WS02003066WSF200     CONDUIT   1400.67     0  01:55      3.43    0.24    0.40
  WS02003067WS02003066 CONDUIT   1399.98     0  02:10      2.09    0.45    0.58
  WS02003069WS02003072 CONDUIT   1614.11     0  02:11      1.94    0.78    0.69
  WS02003072WS02003073 CONDUIT   1614.07     0  02:12      2.11    3.49    0.64
  WS02004138WS02004139 CONDUIT    190.63     0  00:29      2.18    0.04    0.43
  WS02004139WS02001211 CONDUIT    258.75     0  01:26      0.54    0.33    0.63
  WS02004401WS02004402 CONDUIT   1400.68     0  02:04      1.78    1.68    1.00
  WS02004402WS02004403 CONDUIT   1400.88     0  02:10      1.78    2.01    1.00
  WS02004403WS02004404 CONDUIT   1401.19     0  02:10      1.78    1.01    1.00
  WS02004404WS02004405 CONDUIT   1402.28     0  02:10      1.79   13.74    1.00
  WS02004405WS02004406 CONDUIT   1401.64     0  02:10      1.78    2.76    1.00
  WS02004406WS02004407 CONDUIT   1401.57     0  02:10      1.89    0.63    1.00
  WS02004407WS02004409 CONDUIT   1400.54     0  01:58      2.07    0.50    1.00
  WS02004409WS02004410 CONDUIT   1400.51     0  02:10      1.78    1.81    1.00
  WS02004410WS02004411 CONDUIT   1400.68     0  01:58      1.78    1.91    1.00
  WS02004411WS02004412 CONDUIT   1400.67     0  02:10      1.78    1.99    1.00
  WS02004412WS02004413 CONDUIT   1401.08     0  02:10      1.78    0.94    1.00
  WS02004413WS02003067 CONDUIT   1401.94     0  02:10      2.13    0.60    0.78
  WS02006109WS02006110 CONDUIT   1132.81     0  01:36      2.25    2.18    1.00
  WS02006110WS02006113 CONDUIT   1131.16     0  01:36      2.25    1.03    1.00
  WS02006111WS02006112 CONDUIT   1122.50     0  02:49      2.23    0.53    1.00
  WS02006112WS02006115 CONDUIT   1401.07     0  02:10      1.78    0.83    1.00
  WS02006113WS02006111 CONDUIT   1125.85     0  01:36      2.71    1.35    1.00
  WS02006115WS02006116 CONDUIT   1400.79     0  02:10      1.78    1.80    1.00
  WS02006116WS02004401 CONDUIT   1400.67     0  02:10      1.78    1.93    1.00
  WS02006228WS02006109 CONDUIT   1288.11     0  01:47      2.56    5.63    1.00
  WS02006229WS02006228 CONDUIT   1288.60     0  01:48      2.56    4.27    1.00
  WS02006230WS02006229 CONDUIT   1015.51     0  01:47      2.64   22.60    1.00
  WS02006231WS02006230 CONDUIT    539.72     0  03:54      1.40    8.19    1.00
  WS02006232WS02006231 CONDUIT    539.00     0  03:54      1.40    1.13    1.00
  WS02006234WS02006232 CONDUIT    539.56     0  03:54      1.41    1.09    1.00
  WS02006235WS02006234 CONDUIT    537.05     0  03:54      1.40    5.67    1.00
  WS02006238WS02006235 CONDUIT    427.76     0  01:36      1.45    0.95    1.00
  WS02006239WS02006238 CONDUIT    419.63     0  03:52      1.12    1.34    1.00
  WS02006240WS02006239 CONDUIT    419.59     0  03:52      1.26    1.32    1.00
  WS02006242WS02006240 CONDUIT    419.53     0  03:52      1.14    1.67    1.00
  WS02006243WS02006242 CONDUIT    419.50     0  03:52      1.34    0.90    1.00
  WS02006245WS02006243 CONDUIT    419.47     0  03:52      1.39    1.24    1.00
  WS02006247WS02006245 CONDUIT    419.43     0  03:52      1.37    3.33    1.00
  WS02006248WS02006247 CONDUIT    419.38     0  03:52      1.38    0.91    1.00
  WS02006249WS02006248 CONDUIT    419.30     0  03:52      1.38    2.30    1.00
  WS02006251WS02006249 CONDUIT   1411.09     0  02:02      3.67    4.07    1.00
  WS02006252WS02006251 CONDUIT    420.21     0  02:01     24.89    1.54    1.00
  WS02006253WS02006251 CONDUIT   1867.37     0  02:01      4.85    5.60    1.00
  WS02006256WS02006235 CONDUIT    288.93     0  00:00      4.23    3.06    1.00
  WS02006280WS02006229 CONDUIT   2305.40     0  01:47      4.82    0.49    1.00
  WS02006284WS02006280 CONDUIT   2304.02     0  01:47      3.08    0.96    1.00
  WS02006287WS02006284 CONDUIT   2303.86     0  01:47      2.93    1.07    1.00
  WSF200WS02003060     CONDUIT   1401.54     0  01:55      2.65    0.31    0.53
  YS02001580YS02001583 CONDUIT     69.21     0  01:28      0.51    0.27    1.00
  YS02001583YS02001586 CONDUIT    105.27     0  01:28      0.43    0.16    1.00
  YS02001586YS02001590 CONDUIT    324.40     0  01:36      1.25    0.57    1.00
  YS02001590YS02001593 CONDUIT    319.71     0  01:36      1.13    2.01    1.00
  YS02001593YS02001596 CONDUIT    318.16     0  02:43      1.65    0.50    1.00
  YS02001596YS02001600 CONDUIT    318.12     0  02:43      1.20    0.62    1.00
  YS02001600YS02001601 CONDUIT    317.99     0  01:52      1.12    0.55    1.00
  YS02001601YS02001602 CONDUIT    496.30     0  01:27      1.76    1.79    1.00
  YS02001602YS02001605 CONDUIT    496.20     0  01:27      1.75   10.50    1.00
  YS02001605YS02001607 CONDUIT    495.95     0  01:28      1.75    2.72    1.00
  YS02001607YS02001610 CONDUIT    497.28     0  01:28      0.63    0.47    1.00
  YS02001610YS02001613 CONDUIT    620.38     0  02:11      0.79    0.72    1.00
  YS02001613YS02001616 CONDUIT    620.37     0  02:11      0.79    0.53    1.00
  YS02001616YS02001619 CONDUIT    621.84     0  02:11      0.79    1.08    1.00
  YS02001619YS02001622 CONDUIT   1054.02     0  02:00      1.39    1.55    1.00
  YS02001622YS02001625 CONDUIT   1053.73     0  01:57      1.34    0.56    1.00
  YS02001625YS02001629 CONDUIT    913.93     0  01:34      1.16    0.43    1.00
  YS02001629YS02163301 CONDUIT   1139.05     0  02:04      1.45    1.40    1.00
  YS02001633YS02163601 CONDUIT   1296.42     0  01:34      1.65    1.36    1.00
  YS02001641YS02001644 CONDUIT   1294.64     0  01:34      1.65    4.19    1.00
  YS02001644YS02001647 CONDUIT   1626.57     0  01:34      2.11    0.96    1.00
  YS02001647YS02001649 CONDUIT   1627.90     0  01:34      2.28    0.86    1.00
  YS02001649YS02001757 CONDUIT   1843.00     0  01:36      2.44    1.12    1.00
  YS02001652YS02001649 CONDUIT   2429.36     0  02:04      3.09    1.20    1.00
  YS02001655YS02001652 CONDUIT   2429.35     0  02:03      3.09    1.18    1.00
  YS02001658YS02001655 CONDUIT   2731.29     0  02:03      3.48    1.16    1.00
  YS02001661YS02001658 CONDUIT   2783.86     0  02:02      3.54    1.09    1.00
  YS02001664YS02001661 CONDUIT   2783.84     0  02:02      3.54    0.87    1.00
  YS02001745YS02001748 CONDUIT   2065.51     0  02:01      2.63    0.80    1.00
  YS02001748YS02001751 CONDUIT   2065.36     0  02:01      2.63    1.04    1.00
  YS02001751YS02001754 CONDUIT   2067.07     0  02:01      2.63    1.00    1.00
  YS02001754YS02001757 CONDUIT   2068.49     0  02:01      2.63    0.83    1.00
  YS02001757CaochengTiaoxuchi CONDUIT   2921.94     0  01:45      3.72    1.26    1.00
  YS02001759YS02001757 CONDUIT   1566.11     0  02:03      1.99    1.11    1.00
  YS02001762YS02001759 CONDUIT    721.79     0  02:03      0.92    0.83    1.00
  YS02001765YS02001762 CONDUIT    721.53     0  02:03      0.92    0.68    1.00
  YS02001767YS02001765 CONDUIT    721.61     0  02:03      0.92    0.91    1.00
  YS02001770YS02001767 CONDUIT    722.17     0  02:03      0.92    2.86    1.00
  YS02001774YS02001770 CONDUIT    852.13     0  01:58      1.08    0.54    1.00
  YS02001779YS02001774 CONDUIT    851.80     0  02:04      1.08    0.43    1.00
  YS02001783YS02001784 CONDUIT   1321.81     0  02:02      2.63    1.82    1.00
  YS02001784YS02001785 CONDUIT   1322.90     0  02:02      2.63    3.08    1.00
  YS02001786YS02001788 CONDUIT   1322.78     0  02:02      2.74    2.55    0.93
  YS02001788YS02001790 CONDUIT   1346.84     0  02:02      2.93    0.99    0.91
  YS02001790YS02001791 CONDUIT   1413.56     0  02:01      3.58    1.54    0.76
  YS02001791YS02001793 CONDUIT   1435.77     0  02:02      6.79    0.62    0.52
  YS02001793JiankangQianchi CONDUIT   1391.59     0  02:02      2.55    0.11    0.69
  YS02001882YS02001884 CONDUIT     33.68     0  01:33      0.27    0.04    1.00
  YS02001884YS02001887 CONDUIT     47.12     0  01:17      0.20    0.06    1.00
  YS02001887YS02001890 CONDUIT   2052.03     0  02:04      2.61    3.51    1.00
  YS02001890YS02001895 CONDUIT    518.38     0  01:56      0.66    0.24    1.00
  YS02001895YS02001898 CONDUIT    518.46     0  01:55      0.66    0.90    1.00
  YS02001898YS02001901 CONDUIT    518.70     0  01:58      0.66    0.33    1.00
  YS02001901YS02001904 CONDUIT    518.20     0  01:55      0.66    0.80    1.00
  YS02001904YS02001907 CONDUIT    519.93     0  02:13      0.66    0.18    1.00
  YS02001907YS02006553 CONDUIT   2160.67     0  02:03      2.40    2.54    1.00
  YS02001910YS02001907 CONDUIT   1993.05     0  02:00      2.54    1.12    1.00
  YS02001915YS02001910 CONDUIT   1993.23     0  02:07      2.54    0.99    1.00
  YS02001918YS02001915 CONDUIT   1221.69     0  02:07      1.56    0.67    1.00
  YS02001920YS02001918 CONDUIT   1682.19     0  02:02      2.14    1.63    1.00
  YS02001923YS02001920 CONDUIT   1679.03     0  02:02      2.14    0.75    1.00
  YS02001926YS02001923 CONDUIT   1678.93     0  02:01      2.14    2.40    1.00
  YS02001929YS02001926 CONDUIT   1678.89     0  02:02      2.14    0.80    1.00
  YS02006553YS02006556 CONDUIT   2160.67     0  02:01      2.75    1.85    1.00
  YS02006556YS02006558 CONDUIT   2160.77     0  02:01      2.75    1.71    1.00
  YS02006558YS02006561 CONDUIT   1321.82     0  02:02      4.67    2.92    1.00
  YS02006561YS02001783 CONDUIT   1322.15     0  02:02      2.63    0.68    1.00
  YS02163301YS02001633 CONDUIT   1138.95     0  02:07      1.45    1.07    1.00
  YS02163601YS02164001 CONDUIT   1296.28     0  01:34      1.65    1.15    1.00
  YS02164001YS02001641 CONDUIT   1293.88     0  01:34      1.65    1.77    1.00
  YSB1154YSB6556       CONDUIT    725.69     0  02:04      1.89    1.30    1.00
  YSB1171HS02004479    CONDUIT    375.65     0  01:38      0.75    0.25    1.00
  YSB1174YSB1171       CONDUIT    750.69     0  02:06      1.95    1.15    1.00
  YSB6556YSB1171       CONDUIT    639.84     0  02:05      1.66    0.66    1.00
  CC-R1                PUMP       683.00     0  00:00              1.00
  CC-R2                PUMP       683.00     0  00:00              1.00
  CC-S1                PUMP       200.00     0  00:00              1.00
  CC-S2                PUMP       200.00     0  00:00              1.00
  JK-R1                PUMP      1000.00     0  00:00              1.00
  JK-R2                PUMP      1000.00     0  00:00              1.00
  JK-S                 PUMP       300.00     0  00:00              1.00
  XR-1                 PUMP        95.00     0  00:00              1.00
  XR-2                 PUMP        95.00     0  00:00              1.00
  XR-3                 PUMP        95.00     0  00:00              1.00
  XR-4                 PUMP        95.00     0  00:00              1.00
  
  
  ***************************
  Flow Classification Summary
  ***************************
  
  -------------------------------------------------------------------------------------
                      Adjusted    ---------- Fraction of Time in Flow Class ---------- 
                       /Actual         Up    Down  Sub   Sup   Up    Down  Norm  Inlet 
  Conduit               Length    Dry  Dry   Dry   Crit  Crit  Crit  Crit  Ltd   Ctrl  
  -------------------------------------------------------------------------------------
  1                       1.00   0.00  0.00  0.00  0.00  1.00  0.00  0.00  0.38  0.00
  HS02004478WS02006287    1.00   0.09  0.00  0.00  0.72  0.19  0.00  0.00  0.56  0.00
  HS02004479HS02004480    1.00   0.04  0.00  0.00  0.96  0.00  0.00  0.00  0.09  0.00
  HS02004480HS02004478    1.00   0.09  0.00  0.00  0.66  0.00  0.00  0.25  0.00  0.00
  HS02004770HS02004777    1.00   0.00  0.09  0.00  0.91  0.00  0.00  0.00  0.01  0.00
  HS02004777HS02004785    1.00   0.00  0.00  0.00  1.00  0.00  0.00  0.00  0.10  0.00
  HS02004785HS02004788    1.00   0.00  0.00  0.00  1.00  0.00  0.00  0.00  0.00  0.00
  HS02004788HS02004792    1.00   0.00  0.00  0.00  0.99  0.01  0.00  0.00  0.78  0.00
  HS02004792HS02004799    1.00   0.00  0.00  0.00  0.99  0.01  0.00  0.00  0.75  0.00
  HS02004799HS02004480    1.00   0.00  0.04  0.00  0.91  0.00  0.05  0.00  0.00  0.00
  HS02004802HS02004478    1.00   0.09  0.00  0.00  0.91  0.00  0.00  0.00  0.01  0.00
  HS02004807HS02004802    1.00   0.09  0.00  0.00  0.91  0.00  0.00  0.01  0.00  0.00
  HS02004817HS02004807    1.00   0.00  0.09  0.00  0.91  0.00  0.00  0.00  0.01  0.00
  HS02004817HS02004824    1.00   0.00  0.00  0.00  1.00  0.00  0.00  0.00  0.74  0.00
  HS02004824HS02004830    1.00   0.00  0.00  0.00  1.00  0.00  0.00  0.00  0.00  0.00
  HS02004830HS02004837    1.00   0.00  0.00  0.00  1.00  0.00  0.00  0.00  0.76  0.00
  HS02004837HS02004842    1.00   0.00  0.00  0.00  1.00  0.00  0.00  0.00  0.11  0.00
  HS02004842HS02004848    1.00   0.00  0.09  0.00  0.91  0.00  0.00  0.00  0.52  0.00
  HS02004848HS02004852    1.00   0.09  0.00  0.00  0.91  0.00  0.00  0.00  0.62  0.00
  HS02004852HS02004856    1.00   0.09  0.00  0.00  0.91  0.00  0.00  0.00  0.61  0.00
  HS02004856HS02004862    1.00   0.00  0.09  0.00  0.91  0.00  0.00  0.00  0.64  0.00
  HS02004862HS02004870    1.00   0.00  0.00  0.00  1.00  0.00  0.00  0.00  0.01  0.00
  HS02004870HS02004876    1.00   0.00  0.00  0.00  0.99  0.01  0.00  0.00  0.74  0.00
  HS02004876HS02004881    1.00   0.02  0.00  0.00  0.82  0.16  0.00  0.00  0.00  0.00
  HS02004881HS02006253    1.00   0.03  0.02  0.00  0.54  0.02  0.00  0.38  0.16  0.00
  HS02004901HS02004770    1.00   0.09  0.00  0.00  0.91  0.00  0.00  0.00  0.00  0.00
  WS02001211WS02001212    1.00   0.00  0.03  0.00  0.97  0.00  0.00  0.00  0.00  0.00
  WS02001212WS02001213    1.00   0.03  0.00  0.00  0.57  0.00  0.40  0.00  0.00  0.00
  WS02001213WS02003059    1.00   0.00  0.00  0.00  0.99  0.00  0.00  0.00  0.00  0.00
  WS02003059WS02003060    1.00   0.00  0.00  0.00  1.00  0.00  0.00  0.00  0.03  0.00
  WS02003060WS02003069    1.00   0.00  0.00  0.00  0.98  0.02  0.00  0.00  0.55  0.00
  WS02003066WSF200        1.00   0.06  0.00  0.00  0.00  0.94  0.00  0.00  0.58  0.00
  WS02003067WS02003066    1.00   0.05  0.00  0.00  0.94  0.00  0.00  0.00  0.00  0.00
  WS02003069WS02003072    1.00   0.00  0.00  0.00  1.00  0.00  0.00  0.00  0.59  0.00
  WS02003072WS02003073    1.00   0.00  0.00  0.00  0.00  0.00  0.00  1.00  0.00  0.00
  WS02004138WS02004139    1.00   0.00  0.01  0.00  0.97  0.01  0.00  0.02  0.98  0.00
  WS02004139WS02001211    1.00   0.00  0.00  0.00  0.99  0.00  0.00  0.00  0.00  0.00
  WS02004401WS02004402    1.00   0.03  0.00  0.00  0.97  0.00  0.00  0.00  0.00  0.00
[...]
  WS02006284WS02006280    1.00   0.09  0.00  0.00  0.32  0.00  0.00  0.58  0.00  0.00
  WS02006287WS02006284    1.00   0.08  0.02  0.00  0.60  0.30  0.00  0.01  0.61  0.00
  WSF200WS02003060        1.00   0.00  0.06  0.00  0.38  0.56  0.00  0.00  0.56  0.00
  YS02001580YS02001583    1.00   0.16  0.38  0.00  0.47  0.00  0.00  0.00  0.61  0.00
  YS02001583YS02001586    1.00   0.28  0.17  0.00  0.54  0.00  0.00  0.00  0.61  0.00
  YS02001586YS02001590    1.00   0.09  0.00  0.00  0.66  0.02  0.00  0.23  0.27  0.00
  YS02001590YS02001593    1.00   0.09  0.00  0.00  0.33  0.00  0.58  0.00  0.00  0.00
  YS02001593YS02001596    1.00   0.09  0.00  0.00  0.36  0.01  0.00  0.54  0.02  0.00
  YS02001596YS02001600    1.00   0.09  0.00  0.00  0.43  0.02  0.00  0.47  0.03  0.00
  YS02001600YS02001601    1.00   0.09  0.00  0.00  0.91  0.00  0.00  0.00  0.56  0.00
  YS02001601YS02001602    1.00   0.09  0.00  0.00  0.91  0.00  0.00  0.00  0.00  0.00
  YS02001602YS02001605    1.00   0.09  0.00  0.00  0.91  0.00  0.00  0.00  0.00  0.00
  YS02001605YS02001607    1.00   0.09  0.00  0.00  0.91  0.00  0.00  0.00  0.00  0.00
  YS02001607YS02001610    1.00   0.09  0.00  0.00  0.91  0.00  0.00  0.00  0.00  0.00
  YS02001610YS02001613    1.00   0.09  0.00  0.00  0.91  0.00  0.00  0.00  0.00  0.00
  YS02001613YS02001616    1.00   0.09  0.00  0.00  0.91  0.00  0.00  0.00  0.00  0.00
  YS02001616YS02001619    1.00   0.09  0.00  0.00  0.91  0.00  0.00  0.00  0.00  0.00
  YS02001619YS02001622    1.00   0.09  0.00  0.00  0.91  0.01  0.00  0.00  0.31  0.00
  YS02001622YS02001625    1.00   0.09  0.00  0.00  0.91  0.00  0.00  0.00  0.01  0.00
  YS02001625YS02001629    1.00   0.09  0.01  0.00  0.42  0.00  0.47  0.00  0.00  0.00
  YS02001629YS02163301    1.00   0.09  0.00  0.00  0.91  0.00  0.00  0.00  0.00  0.00
  YS02001633YS02163601    1.00   0.00  0.01  0.00  0.99  0.00  0.00  0.00  0.13  0.00
  YS02001641YS02001644    1.00   0.00  0.00  0.00  0.99  0.00  0.00  0.00  0.00  0.00
  YS02001644YS02001647    1.00   0.00  0.09  0.00  0.91  0.00  0.00  0.00  0.00  0.00
  YS02001647YS02001649    1.00   0.00  0.09  0.00  0.73  0.18  0.00  0.00  0.56  0.00
  YS02001649YS02001757    1.00   0.00  0.00  0.00  0.82  0.18  0.00  0.00  0.41  0.00
  YS02001652YS02001649    1.00   0.00  0.00  0.00  0.99  0.01  0.00  0.00  0.66  0.00
  YS02001655YS02001652    1.00   0.00  0.00  0.00  0.47  0.01  0.00  0.52  0.03  0.00
  YS02001658YS02001655    1.00   0.00  0.09  0.00  0.80  0.11  0.00  0.00  0.58  0.00
  YS02001661YS02001658    1.00   0.09  0.00  0.00  0.61  0.30  0.00  0.00  0.60  0.00
  YS02001664YS02001661    1.00   0.09  0.00  0.00  0.81  0.10  0.00  0.00  0.74  0.00
  YS02001745YS02001748    1.00   0.00  0.00  0.00  0.34  0.00  0.00  0.65  0.03  0.00
  YS02001748YS02001751    1.00   0.00  0.00  0.00  0.91  0.09  0.00  0.00  0.69  0.00
  YS02001751YS02001754    1.00   0.00  0.00  0.00  0.45  0.01  0.00  0.54  0.03  0.00
  YS02001754YS02001757    1.00   0.00  0.00  0.00  1.00  0.00  0.00  0.00  0.70  0.00
  YS02001757CaochengTiaoxuchi    1.00   0.00  0.00  0.00  0.96  0.04  0.00  0.00  0.67  0.00
  YS02001759YS02001757    1.00   0.00  0.00  0.00  0.99  0.01  0.00  0.00  0.58  0.00
  YS02001762YS02001759    1.00   0.00  0.00  0.00  1.00  0.00  0.00  0.00  0.01  0.00
  YS02001765YS02001762    1.00   0.00  0.00  0.00  1.00  0.00  0.00  0.00  0.64  0.00
  YS02001767YS02001765    1.00   0.00  0.00  0.00  1.00  0.00  0.00  0.00  0.00  0.00
  YS02001770YS02001767    1.00   0.00  0.00  0.00  1.00  0.00  0.00  0.00  0.00  0.00
  YS02001774YS02001770    1.00   0.00  0.09  0.00  0.76  0.00  0.15  0.00  0.01  0.00
  YS02001779YS02001774    1.00   0.00  0.00  0.00  1.00  0.00  0.00  0.00  0.67  0.00
  YS02001783YS02001784    1.00   0.00  0.10  0.00  0.90  0.00  0.00  0.00  0.55  0.00
  YS02001784YS02001785    1.00   0.00  0.00  0.00  1.00  0.00  0.00  0.00  0.14  0.00
  YS02001786YS02001788    1.00   0.00  0.00  0.00  0.74  0.26  0.00  0.00  0.00  0.00
  YS02001788YS02001790    1.00   0.00  0.00  0.00  0.21  0.79  0.00  0.00  0.75  0.00
  YS02001790YS02001791    1.00   0.00  0.00  0.00  0.01  0.99  0.00  0.00  0.11  0.00
  YS02001791YS02001793    1.00   0.00  0.00  0.00  0.00  1.00  0.00  0.00  0.02  0.00
  YS02001793JiankangQianchi    1.00   0.00  0.00  0.00  0.87  0.13  0.00  0.00  0.93  0.00
  YS02001882YS02001884    1.00   0.09  0.00  0.00  0.91  0.00  0.00  0.00  0.00  0.00
  YS02001884YS02001887    1.00   0.06  0.03  0.00  0.92  0.00  0.00  0.00  0.00  0.00
  YS02001887YS02001890    1.00   0.00  0.00  0.00  0.96  0.00  0.03  0.00  0.00  0.00
  YS02001890YS02001895    1.00   0.00  0.09  0.00  0.91  0.00  0.00  0.00  0.00  0.00
  YS02001895YS02001898    1.00   0.09  0.00  0.00  0.90  0.00  0.01  0.00  0.00  0.00
  YS02001898YS02001901    1.00   0.09  0.00  0.00  0.91  0.00  0.00  0.00  0.00  0.00
  YS02001901YS02001904    1.00   0.09  0.00  0.00  0.91  0.00  0.00  0.00  0.00  0.00
  YS02001904YS02001907    1.00   0.00  0.09  0.00  0.91  0.00  0.00  0.00  0.00  0.00
  YS02001907YS02006553    1.00   0.00  0.02  0.00  0.97  0.00  0.00  0.00  0.00  0.00
  YS02001910YS02001907    1.00   0.00  0.00  0.00  0.97  0.00  0.00  0.03  0.11  0.00
  YS02001915YS02001910    1.00   0.00  0.00  0.00  0.97  0.03  0.00  0.00  0.11  0.00
  YS02001918YS02001915    1.00   0.00  0.00  0.00  0.97  0.02  0.00  0.00  0.65  0.00
  YS02001920YS02001918    1.00   0.00  0.00  0.00  1.00  0.00  0.00  0.00  0.00  0.00
  YS02001923YS02001920    1.00   0.00  0.00  0.00  1.00  0.00  0.00  0.00  0.82  0.00
  YS02001926YS02001923    1.00   0.00  0.06  0.00  0.22  0.00  0.72  0.00  0.00  0.00
  YS02001929YS02001926    1.00   0.00  0.09  0.00  0.91  0.00  0.00  0.00  0.73  0.00
  YS02006553YS02006556    1.00   0.01  0.00  0.00  0.99  0.00  0.00  0.00  0.03  0.00
  YS02006556YS02006558    1.00   0.00  0.00  0.00  1.00  0.00  0.00  0.00  0.00  0.00
  YS02006558YS02006561    1.00   0.10  0.00  0.00  0.20  0.70  0.00  0.00  0.11  0.00
  YS02006561YS02001783    1.00   0.10  0.00  0.00  0.28  0.62  0.00  0.00  0.62  0.00
  YS02163301YS02001633    1.00   0.00  0.09  0.00  0.91  0.00  0.00  0.00  0.00  0.00
  YS02163601YS02164001    1.00   0.00  0.07  0.00  0.93  0.00  0.00  0.00  0.00  0.00
  YS02164001YS02001641    1.00   0.01  0.06  0.00  0.93  0.00  0.00  0.00  0.05  0.00
  YSB1154YSB6556          1.00   0.09  0.00  0.00  0.91  0.00  0.00  0.00  0.01  0.00
  YSB1171HS02004479       1.00   0.04  0.00  0.00  0.95  0.00  0.00  0.01  0.09  0.00
  YSB1174YSB1171          1.00   0.05  0.02  0.00  0.93  0.00  0.00  0.00  0.00  0.00
  YSB6556YSB1171          1.00   0.04  0.04  0.00  0.91  0.00  0.00  0.00  0.00  0.00
  
  
  *************************
  Conduit Surcharge Summary
  *************************
  
  ----------------------------------------------------------------------------
                                                           Hours        Hours 
                         --------- Hours Full --------   Above Full   Capacity
  Conduit                Both Ends  Upstream  Dnstream   Normal Flow   Limited
  ----------------------------------------------------------------------------
  HS02004478WS02006287        1.42      1.42      1.63      0.01         0.01
  HS02004479HS02004480        1.63      1.63      1.66      0.01         0.01
  HS02004480HS02004478        1.55      1.62      1.55      2.18         1.55
  HS02004770HS02004777        1.53      1.53      1.54      0.20         0.14
  HS02004777HS02004785        1.47      1.47      1.54      0.01         0.01
  HS02004785HS02004788        1.45      1.47      1.45      1.87         1.03
  HS02004788HS02004792        1.45      1.45      1.59      0.01         0.01
  HS02004792HS02004799        1.59      1.59      1.73      0.01         0.01
  HS02004799HS02004480        1.62      1.62      1.73      1.79         0.01
  HS02004802HS02004478        1.57      1.57      1.65      0.66         0.01
  HS02004807HS02004802        1.61      1.61      1.64      0.95         0.96
  HS02004817HS02004807        1.61      1.61      1.95      0.01         0.01
  HS02004817HS02004824        1.44      1.44      1.95      0.01         0.01
  HS02004824HS02004830        1.40      1.40      1.44      0.06         0.07
  HS02004830HS02004837        1.32      1.32      1.40      0.01         0.01
  HS02004837HS02004842        1.32      1.32      1.54      0.01         0.01
  HS02004842HS02004848        1.29      1.29      1.54      0.01         0.01
  HS02004848HS02004852        1.29      1.29      1.33      0.01         0.05
  HS02004852HS02004856        1.33      1.33      1.35      0.11         0.09
  HS02004856HS02004862        1.31      1.31      1.37      0.01         0.01
  HS02004862HS02004870        1.37      1.37      1.40      0.50         0.51
  HS02004870HS02004876        1.40      1.40      1.49      0.01         0.01
  HS02004876HS02004881        1.47      1.49      1.47      2.07         1.47
  HS02004881HS02006253        1.47      1.47      2.73      0.01         0.01
  HS02004901HS02004770        1.53      1.53      1.53      0.75         0.01
  WS02003072WS02003073        0.01      0.01      0.01      3.04         0.01
  WS02004401WS02004402        2.11      2.11      2.14      1.95         1.94
  WS02004402WS02004403        2.14      2.14      2.15      2.11         2.10
  WS02004403WS02004404        2.15      2.15      2.32      0.30         0.25
  WS02004404WS02004405        2.27      2.32      2.27      3.29         2.27
  WS02004405WS02004406        2.24      2.27      2.24      2.81         2.24
  WS02004406WS02004407        0.39      0.39      2.24      0.01         0.01
  WS02004407WS02004409        0.39      0.39      1.78      0.01         0.01
  WS02004409WS02004410        1.78      1.78      1.78      2.02         1.78
  WS02004410WS02004411        1.76      1.78      1.76      2.07         1.76
  WS02004411WS02004412        1.71      1.76      1.71      2.10         1.71
  WS02004412WS02004413        1.71      1.71      1.92      0.01         0.01
  WS02004413WS02003067        0.01      0.01      1.92      0.01         0.01
  WS02006109WS02006110        2.81      2.81      2.92      2.81         0.01
  WS02006110WS02006113        1.92      1.92      2.92      0.52         0.01
  WS02006111WS02006112        1.90      1.90      3.00      0.01         0.01
  WS02006112WS02006115        2.02      2.02      2.83      0.01         0.01
  WS02006113WS02006111        1.91      1.92      1.91      1.95         1.80
  WS02006115WS02006116        2.03      2.03      2.04      2.02         1.99
  WS02006116WS02004401        2.10      2.11      2.11      2.09         2.06
  WS02006228WS02006109        2.91      2.92      2.91      3.12         2.91
  WS02006229WS02006228        2.90      2.91      2.90      3.01         2.90
  WS02006230WS02006229        2.93      2.94      2.93      3.50         1.05
  WS02006231WS02006230        2.56      2.56      2.79      3.31         1.82
  WS02006232WS02006231        2.79      2.79      2.83      0.18         0.36
  WS02006234WS02006232        2.80      2.80      2.83      0.18         0.17
  WS02006235WS02006234        2.78      2.78      2.79      3.15         1.82
  WS02006238WS02006235        2.80      2.80      2.82      0.01         0.83
  WS02006239WS02006238        2.81      2.81      2.81      2.63         0.76
  WS02006240WS02006239        2.78      2.79      2.79      2.47         0.67
  WS02006242WS02006240        2.78      2.78      2.81      2.74         1.79
  WS02006243WS02006242        2.78      2.78      2.80      0.01         0.01
  WS02006245WS02006243        2.77      2.77      2.77      0.67         0.60
  WS02006247WS02006245        2.77      2.77      2.77      2.93         0.91
  WS02006248WS02006247        2.76      2.76      2.77      0.01         0.01
  WS02006249WS02006248        2.76      2.76      2.76      1.02         0.01
  WS02006251WS02006249        2.76      2.76      2.76      2.81         2.72
  WS02006252WS02006251        2.86      2.86      2.87      2.02         0.52
  WS02006253WS02006251        2.75      2.76      2.75      1.74         0.01
  WS02006256WS02006235        3.21      3.21      4.87      0.35         0.01
  WS02006280WS02006229        1.75      1.75      1.79      0.01         0.01
  WS02006284WS02006280        1.66      1.66      1.73      0.01         0.01
  WS02006287WS02006284        1.55      1.55      1.67      1.03         1.03
  YS02001580YS02001583        1.51      1.51      1.56      0.01         0.01
  YS02001583YS02001586        1.52      1.52      1.63      0.01         0.01
  YS02001586YS02001590        1.64      1.64      1.70      0.01         0.01
  YS02001590YS02001593        1.70      1.70      1.72      1.69         0.01
  YS02001593YS02001596        1.72      1.72      1.81      0.01         0.01
  YS02001596YS02001600        1.85      1.85      1.93      0.01         0.01
  YS02001600YS02001601        1.97      1.97      2.16      0.01         0.01
  YS02001601YS02001602        2.10      2.10      2.18      1.91         0.01
  YS02001602YS02001605        2.07      2.07      2.10      2.62         0.01
  YS02001605YS02001607        2.05      2.07      2.07      2.03         1.95
  YS02001607YS02001610        1.72      1.72      1.75      0.01         0.01
  YS02001610YS02001613        1.72      1.72      1.75      0.01         0.01
  YS02001613YS02001616        1.68      1.68      1.72      0.01         0.01
  YS02001616YS02001619        1.67      1.67      1.68      0.49         0.37
  YS02001619YS02001622        1.67      1.67      1.67      1.60         1.48
  YS02001622YS02001625        1.67      1.67      1.85      0.01         0.01
  YS02001625YS02001629        1.63      1.63      1.85      0.01         0.01
  YS02001629YS02163301        1.87      1.87      1.88      0.42         0.12
  YS02001633YS02163601        1.91      1.91      1.96      0.19         0.20
  YS02001641YS02001644        1.86      1.88      1.86      2.20         1.75
  YS02001644YS02001647        1.63      1.63      1.86      0.01         0.01
  YS02001647YS02001649        1.63      1.63      1.77      0.01         0.01
  YS02001649YS02001757        1.77      1.77      1.85      0.17         0.08
  YS02001652YS02001649        1.61      1.61      1.77      0.16         0.16
  YS02001655YS02001652        1.46      1.46      1.60      0.15         0.15
  YS02001658YS02001655        1.18      1.18      1.46      0.12         0.12
  YS02001661YS02001658        0.48      0.48      1.18      0.10         0.10
  YS02001664YS02001661        0.25      0.25      0.63      0.01         0.01
  YS02001745YS02001748        0.25      0.25      1.01      0.01         0.01
  YS02001748YS02001751        1.18      1.18      1.40      0.02         0.02
  YS02001751YS02001754        1.40      1.40      1.54      0.01         0.01
  YS02001754YS02001757        1.57      1.57      1.85      0.01         0.01
  YS02001757CaochengTiaoxuchi        1.85      1.85      2.31      0.67         0.65
  YS02001759YS02001757        1.76      1.76      1.85      0.11         0.11
  YS02001762YS02001759        1.74      1.74      1.76      0.01         0.02
  YS02001765YS02001762        1.69      1.69      1.74      0.01         0.01
  YS02001767YS02001765        1.67      1.67      1.69      0.01         0.02
  YS02001770YS02001767        1.66      1.67      1.67      1.24         0.91
  YS02001774YS02001770        1.65      1.65      1.72      0.01         0.01
  YS02001779YS02001774        1.53      1.53      1.72      0.01         0.01
  YS02001783YS02001784        1.29      1.32      1.29      1.57         1.29
  YS02001784YS02001785        1.12      1.29      1.12      1.74         1.12
  YS02001786YS02001788        0.01      1.12      0.01      1.67         0.01
  YS02001790YS02001791        0.01      0.01      0.01      1.26         0.01
  YS02001793JiankangQianchi        0.01      0.01      7.70      0.01         0.01
  YS02001882YS02001884        1.23      1.23      1.25      0.01         0.01
  YS02001884YS02001887        1.28      1.28      1.30      0.01         0.01
  YS02001887YS02001890        1.33      1.33      1.35      0.53         0.01
  YS02001890YS02001895        1.21      1.21      1.38      0.01         0.01
  YS02001895YS02001898        1.20      1.20      1.21      0.01         0.01
  YS02001898YS02001901        1.22      1.22      1.28      0.01         0.01
  YS02001901YS02001904        1.27      1.27      1.28      0.01         0.01
  YS02001904YS02001907        1.27      1.27      1.66      0.01         0.01
  YS02001907YS02006553        1.75      1.75      1.78      0.19         0.19
  YS02001910YS02001907        1.37      1.37      1.64      0.35         0.35
  YS02001915YS02001910        1.23      1.23      1.37      0.01         0.04
  YS02001918YS02001915        1.10      1.10      1.23      0.01         0.01
  YS02001920YS02001918        1.10      1.10      1.11      0.20         0.01
  YS02001923YS02001920        1.03      1.03      1.11      0.01         0.01
  YS02001926YS02001923        0.52      0.52      0.56      0.31         0.01
  YS02001929YS02001926        0.38      0.38      0.56      0.01         0.01
  YS02006553YS02006556        1.52      1.52      1.66      0.16         0.16
  YS02006556YS02006558        1.60      1.60      1.67      0.15         0.01
  YS02006558YS02006561        1.15      1.49      1.15      1.72         1.15
  YS02006561YS02001783        1.04      1.04      1.32      0.01         0.01
  YS02163301YS02001633        1.88      1.88      1.93      0.22         0.01
  YS02163601YS02164001        1.88      1.88      1.96      0.14         0.01
  YS02164001YS02001641        1.87      1.88      1.88      0.76         0.73
  YSB1154YSB6556              1.70      1.70      1.81      0.35         0.01
  YSB1171HS02004479           1.59      1.59      1.81      0.01         0.01
  YSB1174YSB1171              1.76      1.76      1.92      0.19         0.19
  YSB6556YSB1171              1.70      1.70      1.98      0.01         0.01
  
  
  ***************
  Pumping Summary
  ***************
  
  ---------------------------------------------------------------------------------------------------------
                                                  Min       Avg       Max     Total     Power    % Time Off
                        Percent   Number of      Flow      Flow      Flow    Volume     Usage    Pump Curve
  Pump                 Utilized   Start-Ups       LPS       LPS       LPS  10^6 ltr     Kw-hr    Low   High
  ---------------------------------------------------------------------------------------------------------
  CC-R1                   32.52           2      0.00    683.00    683.00     6.397    125.33    0.0   55.3
  CC-R2                   31.33           2      0.00    683.00    683.00     6.162    120.99    0.0   57.4
  CC-S1                   34.63           2      0.00    200.00    200.00     1.994     12.14    0.0   38.4
  CC-S2                   33.55           2      0.00    200.00    200.00     1.933     11.67    0.0   39.7
  JK-R1                   16.62           7      0.00   1000.00   1000.00     4.788     48.02    0.0    0.0
  JK-R2                    0.16           1      0.00   1000.00   1000.00     0.047      0.36    0.0    0.0
  JK-S                    25.56           3      0.00    300.00    300.00     2.209     34.07    0.0    0.0
  XR-1                    97.91           2      0.00     95.00     95.00     2.679      9.62    0.0    0.0
  XR-2                    93.94           2      0.00     95.00     95.00     2.570      8.78    0.0    0.0
  XR-3                     0.00           1      0.00     95.00     95.00     0.000      0.00    0.0    0.0
  XR-4                     0.00           1      0.00     95.00     95.00     0.000      0.00    0.0    0.0
  

  Analysis begun on:  Tue Jul 11 11:24:14 2023
  Analysis ended on:  Tue Jul 11 11:24:19 2023
  Total elapsed time: 00:00:05