
  OWA STORM WATER MANAGEMENT MODEL - VERSION v5.1.14 (OWA 2022-07-31)
  --------------------------------------------------------------

  WARNING 04: minimum elevation drop used for Conduit WS02004404WS02004405
  WARNING 03: negative offset ignored for Link YS02001904YS02001907
  
  *********************************************************
  NOTE: The summary statistics displayed in this report are
  based on results found at every computational time step,  
  not just on results from each reporting time step.
  *********************************************************
  
  ****************
  Analysis Options
  ****************
  Flow Units ............... LPS
  Process Models:
    Rainfall/Runoff ........ YES
    RDII ................... NO
    Snowmelt ............... NO
    Groundwater ............ NO
    Flow Routing ........... YES
    Ponding Allowed ........ NO
    Water Quality .......... NO
  Infiltration Method ...... HORTON
  Flow Routing Method ...... DYNWAVE
  Surcharge Method ......... EXTRAN
  Starting Date ............ 08/28/2015 08:00:00
  Ending Date .............. 08/28/2015 16:00:00
  Antecedent Dry Days ...... 8.0
  Report Time Step ......... 00:01:00
  Wet Time Step ............ 00:01:00
  Dry Time Step ............ 00:01:00
  Routing Time Step ........ 30.00 sec
  Variable Time Step ....... YES
  Maximum Trials ........... 8
  Number of Threads ........ 4
  Head Tolerance ........... 0.001500 m
  
  
  **************************        Volume         Depth
  Runoff Quantity Continuity     hectare-m            mm
  **************************     ---------       -------
  Initial LID Storage ......         0.072         1.184
  Total Precipitation ......        11.508       189.968
  Evaporation Loss .........         0.000         0.000
  Infiltration Loss ........         0.219         3.611
  Surface Runoff ...........         9.840       162.428
  Final Storage ............         1.524        25.164
  Continuity Error (%) .....        -0.026
  
  
  **************************        Volume        Volume
  Flow Routing Continuity        hectare-m      10^6 ltr
  **************************     ---------     ---------
  Dry Weather Inflow .......         0.630         6.296
  Wet Weather Inflow .......         9.839        98.395
  Groundwater Inflow .......         0.000         0.000
  RDII Inflow ..............         0.000         0.000
  External Inflow ..........         0.105         1.045
  External Outflow .........         3.338        33.383
  Flooding Loss ............         7.197        71.971
  Evaporation Loss .........         0.000         0.000
  Exfiltration Loss ........         0.000         0.000
  Initial Stored Volume ....         0.303         3.031
  Final Stored Volume ......         0.349         3.491
  Continuity Error (%) .....        -0.072
  
  
  *************************
  Highest Continuity Errors
  *************************
  Node YS02001884 (4.78%)
  Node YS02001583 (-4.18%)
  
  
  ***************************
  Time-Step Critical Elements
  ***************************
  Link WS02006280WS02006229 (42.38%)
  Link YS02001791YS02001793 (18.95%)
  Link WS02006238WS02006235 (10.25%)
  Link WS02004404WS02004405 (7.30%)
  Link YS02006556YS02006558 (5.37%)
  
  
  ********************************
  Highest Flow Instability Indexes
  ********************************
  Link WS02006238WS02006235 (41)
  Link WS02006229WS02006228 (38)
  Link WS02006239WS02006238 (36)
  Link WS02006256WS02006235 (36)
  Link WS02006235WS02006234 (36)
  
  
  *************************
  Routing Time Step Summary
  *************************
  Minimum Time Step           :     0.00 sec
  Average Time Step           :     2.68 sec
  Maximum Time Step           :     6.46 sec
  Percent in Steady State     :     0.00
  Average Iterations per Step :     4.09
  Percent Not Converging      :    17.56
  
  
  ***************************
  Subcatchment Runoff Summary
  ***************************
  
  ------------------------------------------------------------------------------------------------------------------------------
                            Total      Total      Total      Total     Imperv       Perv      Total       Total     Peak  Runoff
                           Precip      Runon       Evap      Infil     Runoff     Runoff     Runoff      Runoff   Runoff   Coeff
  Subcatchment                 mm         mm         mm         mm         mm         mm         mm    10^6 ltr      LPS
  ------------------------------------------------------------------------------------------------------------------------------
  sub0                     189.97       0.00       0.00       1.05     175.48      12.25     187.73        0.15   113.61   0.988
  sub1                     189.97       0.00       0.00       1.62     150.46      17.11     172.98        1.15   740.98   0.911
  sub2                     189.97       0.00       0.00       7.35     110.01      57.74     171.61        1.60   861.33   0.903
  sub3                     189.97       0.00       0.00       7.91     109.01      56.61     169.90        3.82  1920.81   0.894
  sub4                     189.97       0.00       0.00       1.77     148.42      16.73     171.14        3.57  2059.29   0.901
  sub5                     189.97       0.00       0.00       0.92     145.54      10.12     164.54        1.86  1245.66   0.866
  sub7                     189.97       0.00       0.00       1.08     132.97      12.17     156.88        0.53   364.57   0.826
  sub8                     189.97       0.00       0.00       1.06     129.23      11.81     153.93        0.98   689.11   0.810
  sub9                     189.97       0.00       0.00       1.03     125.28      11.45     150.81        0.73   515.37   0.794
  sub10                    189.97       0.00       0.00       1.03     140.98      11.32     162.08        1.79  1209.55   0.853
  sub11                    189.97       0.00       0.00       0.94     131.00      10.54     154.32        1.79  1252.65   0.812
  sub12                    189.97       0.00       0.00       1.64     133.16      18.40     161.40        1.41   973.59   0.850
  sub14                    189.97       0.00       0.00       1.02     124.07      11.34     149.86        1.43  1018.19   0.789
  sub15                    189.97       0.00       0.00       4.66     111.55      43.49     163.13        2.81  1796.51   0.859
  sub16                    189.97       0.00       0.00       4.95     108.79      49.01     165.06        1.73  1119.21   0.869
  sub17                    189.97       0.00       0.00       5.30     120.07      51.61     175.01        1.50   961.34   0.921
  sub22                    189.97       0.00       0.00       8.25     104.13      70.86     176.64       11.16  6202.72   0.930
  sub23                    189.97       0.00       0.00       6.21     107.22      57.21     169.53        8.09  4930.43   0.892
  sub60                    189.97       0.00       0.00       1.47     128.12      16.13     156.15        2.05  1422.06   0.822
  sub61                    189.97       0.00       0.00       2.26     128.01      24.15     161.67        2.97  2006.11   0.851
  sub62                    189.97       0.00       0.00       1.00     136.49      10.96     158.58        4.35  2981.18   0.835
  sub63                    189.97       0.00       0.00       4.15     109.64      40.95     160.05        3.63  2417.52   0.843
  sub64                    189.97       0.00       0.00       1.99     124.89      20.21     156.61        3.76  2571.84   0.824
  sub65                    189.97       0.00       0.00       1.83     134.82      18.47     162.58        4.48  2951.59   0.856
  sub66                    189.97       0.00       0.00       4.84     106.13      38.85     155.77        7.26  4348.12   0.820
  sub67                    189.97       0.00       0.00       0.98     139.90      11.27     161.28        3.00  2054.11   0.849
  sub68                    189.97       0.00       0.00       1.73     123.57      18.53     154.52        4.25  2971.86   0.813
  sub69                    189.97       0.00       0.00       1.62     127.89      20.96     159.67        5.91  3928.20   0.841
  sub70                    189.97       0.00       0.00       5.42     102.55      47.46     159.45        4.61  2488.89   0.839
  sub71                    189.97       0.00       0.00       0.92     124.02       9.94     148.83        3.89  2763.99   0.783
  sub72                    189.97       0.00       0.00       0.88     134.03       9.29     155.60        2.14  1428.20   0.819
  

  ***********************
  LID Performance Summary
  ***********************

  --------------------------------------------------------------------------------------------------------------------
                                         Total      Evap     Infil   Surface    Drain    Initial     Final  Continuity
                                        Inflow      Loss      Loss   Outflow   Outflow   Storage   Storage       Error
  Subcatchment      LID Control             mm        mm        mm        mm        mm        mm        mm           %
  --------------------------------------------------------------------------------------------------------------------
  sub1              GreenRoof           189.97      0.00      0.00     52.09      0.00      7.05    144.92        0.00
  sub2              GreenRoof           189.97      0.00      0.00     52.09      0.00      7.05    144.92        0.00
  sub3              GreenRoof           189.97      0.00      0.00     52.09      0.00      7.05    144.92        0.00
  sub4              GreenRoof           189.97      0.00      0.00     52.09      0.00      7.05    144.92        0.00
  sub5              GreenRoof           189.97      0.00      0.00     52.09      0.00      7.05    144.92        0.00
  sub7              GreenRoof           189.97      0.00      0.00     52.09      0.00      7.05    144.92        0.00
  sub8              GreenRoof           189.97      0.00      0.00     52.09      0.00      7.05    144.92        0.00
  sub9              GreenRoof           189.97      0.00      0.00     52.09      0.00      7.05    144.92        0.00
  sub10             GreenRoof           189.97      0.00      0.00     52.09      0.00      7.05    144.92        0.00
  sub11             GreenRoof           189.97      0.00      0.00     52.09      0.00      7.05    144.92        0.00
  sub12             GreenRoof           189.97      0.00      0.00     52.09      0.00      7.05    144.92        0.00
  sub14             GreenRoof           189.97      0.00      0.00     52.09      0.00      7.05    144.92        0.00
  sub15             GreenRoof           189.97      0.00      0.00     52.09      0.00      7.05    144.92        0.00
  sub16             GreenRoof           189.97      0.00      0.00     52.09      0.00      7.05    144.92        0.00
  sub17             GreenRoof           189.97      0.00      0.00     52.09      0.00      7.05    144.92        0.00
  sub22             GreenRoof           189.97      0.00      0.00     52.09      0.00      7.05    144.92        0.00
  sub23             GreenRoof           189.97      0.00      0.00     52.09      0.00      7.05    144.92        0.00
  sub60             GreenRoof           189.97      0.00      0.00     52.09      0.00      7.05    144.92        0.00
  sub61             GreenRoof           189.97      0.00      0.00     52.09      0.00      7.05    144.92        0.00
  sub62             GreenRoof           189.97      0.00      0.00     52.09      0.00      7.05    144.92        0.00
  sub63             GreenRoof           189.97      0.00      0.00     52.09      0.00      7.05    144.92        0.00
  sub64             GreenRoof           189.97      0.00      0.00     52.09      0.00      7.05    144.92        0.00
  sub65             GreenRoof           189.97      0.00      0.00     52.09      0.00      7.05    144.92        0.00
  sub66             GreenRoof           189.97      0.00      0.00     52.09      0.00      7.05    144.92        0.00
  sub67             GreenRoof           189.97      0.00      0.00     52.09      0.00      7.05    144.92        0.00
  sub68             GreenRoof           189.97      0.00      0.00     52.09      0.00      7.05    144.92        0.00
  sub69             GreenRoof           189.97      0.00      0.00     52.09      0.00      7.05    144.92        0.00
  sub70             GreenRoof           189.97      0.00      0.00     52.09      0.00      7.05    144.92        0.00
  sub71             GreenRoof           189.97      0.00      0.00     52.09      0.00      7.05    144.92        0.00
  sub72             GreenRoof           189.97      0.00      0.00     52.09      0.00      7.05    144.92        0.00
  
  ******************
  Node Depth Summary
  ******************
  
  ---------------------------------------------------------------------------------
                                 Average  Maximum  Maximum  Time of Max    Reported
                                   Depth    Depth      HGL   Occurrence   Max Depth
  Node                 Type       Meters   Meters   Meters  days hr:min      Meters
  ---------------------------------------------------------------------------------
  HS02004478           JUNCTION     0.44     1.72    10.95     0  02:20        1.65
  HS02004479           JUNCTION     0.52     1.85    11.05     0  01:44        1.85
  HS02004480           JUNCTION     0.49     1.80    11.04     0  02:20        1.69
  HS02004770           JUNCTION     0.47     1.42    11.25     0  01:24        1.42
  HS02004777           JUNCTION     0.49     1.48    11.28     0  01:25        1.48
  HS02004785           JUNCTION     0.38     1.49    11.39     0  01:25        1.40
  HS02004788           JUNCTION     0.35     1.42    11.32     0  01:25        1.42
  HS02004792           JUNCTION     0.46     1.60    11.12     0  01:23        1.60
  HS02004799           JUNCTION     0.57     1.76    10.97     0  01:28        1.76
  HS02004802           JUNCTION     0.55     1.81    10.94     0  02:20        1.80
  HS02004807           JUNCTION     0.53     1.92    11.09     0  01:32        1.92
  HS02004817           JUNCTION     0.85     2.41    11.26     0  01:40        2.41
  HS02004824           JUNCTION     0.42     2.01    11.41     0  01:33        2.01
  HS02004830           JUNCTION     0.41     2.03    11.50     0  01:44        2.02
  HS02004837           JUNCTION     0.37     1.97    11.55     0  01:36        1.97
  HS02004842           JUNCTION     0.66     2.22    11.49     0  01:28        2.22
  HS02004848           JUNCTION     0.35     2.07    11.67     0  01:40        2.07
  HS02004852           JUNCTION     0.36     2.07    11.59     0  01:40        2.07
  HS02004856           JUNCTION     0.42     2.07    11.50     0  01:28        2.07
  HS02004862           JUNCTION     0.38     2.00    11.38     0  01:28        2.00
  HS02004870           JUNCTION     0.37     2.10    11.39     0  01:36        2.10
  HS02004876           JUNCTION     0.44     2.26    11.29     0  01:35        2.26
  HS02004881           JUNCTION     0.36     2.11    11.14     0  01:44        2.06
  HS02004901           JUNCTION     0.47     1.42    11.24     0  01:24        1.42
  WS02001211           JUNCTION     0.66     0.84     5.68     0  01:39        0.84
  WS02001212           JUNCTION     0.41     0.61     5.67     0  01:38        0.61
  WS02001213           JUNCTION     0.64     0.90     5.66     0  01:39        0.90
  WS02003059           JUNCTION     0.71     0.97     5.66     0  01:39        0.97
  WS02003060           JUNCTION     0.43     0.72     5.65     0  01:42        0.72
  WS02003066           JUNCTION     0.27     0.47     6.03     0  01:40        0.47
  WS02003067           JUNCTION     0.60     0.91     6.23     0  01:35        0.91
  WS02003069           JUNCTION     0.49     0.81     5.40     0  01:43        0.81
  WS02003072           JUNCTION     0.54     0.84     5.21     0  01:43        0.84
  WS02003073           JUNCTION     0.33     0.54     4.60     0  01:42        0.54
  WS02004138           JUNCTION     0.13     0.14     7.39     0  00:29        0.14
  WS02004139           JUNCTION     0.60     0.77     5.68     0  01:40        0.77
  WS02004401           JUNCTION     0.96     2.32     8.32     0  01:20        2.16
  WS02004402           JUNCTION     0.96     2.36     8.32     0  01:20        2.10
  WS02004403           JUNCTION     0.95     2.33     8.26     0  01:20        2.07
  WS02004404           JUNCTION     1.00     2.34     8.19     0  01:20        1.95
  WS02004405           JUNCTION     0.98     2.24     8.09     0  01:20        1.90
  WS02004406           JUNCTION     0.96     2.05     7.88     0  01:20        1.95
  WS02004407           JUNCTION     0.38     1.10     7.41     0  01:34        1.08
  WS02004409           JUNCTION     0.68     1.51     7.28     0  02:20        1.51
  WS02004410           JUNCTION     0.67     1.39     7.11     0  01:34        1.39
  WS02004411           JUNCTION     0.65     1.31     6.99     0  01:23        1.28
  WS02004412           JUNCTION     0.64     1.39     7.03     0  01:23        1.16
  WS02004413           JUNCTION     0.76     1.35     6.82     0  01:23        1.17
  WS02006109           JUNCTION     1.29     2.64     9.26     0  01:25        2.64
  WS02006110           JUNCTION     1.18     2.76     9.34     0  01:20        2.76
  WS02006111           JUNCTION     0.66     2.68     9.39     0  01:20        2.00
  WS02006112           JUNCTION     1.22     2.68     8.56     0  01:34        2.68
  WS02006113           JUNCTION     0.74     2.73     9.62     0  01:20        2.06
  WS02006115           JUNCTION     0.91     2.26     8.40     0  01:34        2.25
  WS02006116           JUNCTION     0.97     2.31     8.35     0  01:20        2.22
  WS02006228           JUNCTION     1.39     3.03     9.68     0  01:33        3.02
  WS02006229           JUNCTION     1.43     3.25     9.94     0  01:44        3.22
  WS02006230           JUNCTION     1.29     2.65     9.39     0  01:22        2.65
  WS02006231           JUNCTION     0.97     2.20     9.32     0  02:11        2.20
  WS02006232           JUNCTION     1.05     2.18     9.22     0  01:22        2.18
  WS02006234           JUNCTION     0.91     1.96     9.12     0  01:21        1.96
  WS02006235           JUNCTION     0.92     2.00     9.16     0  01:21        2.00
  WS02006238           JUNCTION     0.94     2.03     9.17     0  01:21        1.93
  WS02006239           JUNCTION     0.86     2.03     9.24     0  01:18        1.80
  WS02006240           JUNCTION     0.80     1.90     9.19     0  01:19        1.64
  WS02006242           JUNCTION     0.81     1.55     8.82     0  01:19        1.55
  WS02006243           JUNCTION     0.70     1.48     8.90     0  01:19        1.48
  WS02006245           JUNCTION     0.67     1.56     9.04     0  01:19        1.56
  WS02006247           JUNCTION     0.66     1.47     8.97     0  01:20        1.47
  WS02006248           JUNCTION     0.60     1.10     8.69     0  01:20        1.10
  WS02006249           JUNCTION     0.62     1.09     8.69     0  01:20        1.09
  WS02006251           JUNCTION     0.88     2.21     9.88     0  01:36        2.21
  WS02006252           JUNCTION     0.60     1.50     9.74     0  00:00        1.50
  WS02006253           JUNCTION     1.07     3.52    11.16     0  01:20        3.33
  WS02006256           JUNCTION     1.28     2.35     9.28     0  00:00        2.35
  WS02006280           JUNCTION     0.56     1.81    10.08     0  02:20        1.74
  WS02006284           JUNCTION     0.79     2.08    10.48     0  02:20        1.95
  WS02006287           JUNCTION     0.53     1.89    10.84     0  02:20        1.79
  WSF200               JUNCTION     0.27     0.55     5.78     0  01:40        0.55
  YS02001580           JUNCTION     0.22     1.05     9.59     0  01:25        0.77
  YS02001583           JUNCTION     0.25     1.14     9.64     0  01:25        0.86
  YS02001586           JUNCTION     0.37     1.13     9.30     0  01:25        1.13
  YS02001590           JUNCTION     0.50     1.40     9.26     0  01:23        1.40
  YS02001593           JUNCTION     0.43     1.36     9.22     0  02:20        1.29
  YS02001596           JUNCTION     0.57     1.76     9.18     0  02:20        1.76
  YS02001600           JUNCTION     0.67     1.87     9.00     0  01:44        1.87
  YS02001601           JUNCTION     0.86     2.06     8.90     0  01:24        2.06
  YS02001602           JUNCTION     0.75     1.87     8.77     0  01:25        1.87
  YS02001605           JUNCTION     0.71     1.78     8.68     0  02:08        1.78
  YS02001607           JUNCTION     0.68     1.68     8.53     0  02:20        1.68
  YS02001610           JUNCTION     0.72     1.68     8.48     0  01:25        1.68
  YS02001613           JUNCTION     0.68     1.70     8.54     0  02:20        1.70
  YS02001616           JUNCTION     0.61     1.61     8.52     0  01:33        1.61
  YS02001619           JUNCTION     0.59     1.61     8.54     0  01:33        1.61
  YS02001622           JUNCTION     0.58     1.62     8.52     0  01:44        1.58
  YS02001625           JUNCTION     0.83     1.78     8.38     0  01:25        1.78
  YS02001629           JUNCTION     0.74     1.85     8.40     0  01:25        1.85
  YS02001633           JUNCTION     0.83     2.08     8.53     0  01:35        2.08
  YS02001641           JUNCTION     0.80     2.10     8.54     0  02:20        1.99
  YS02001644           JUNCTION     0.80     1.92     8.35     0  01:30        1.92
  YS02001647           JUNCTION     0.60     1.90     8.51     0  01:44        1.90
  YS02001649           JUNCTION     0.69     2.05     8.44     0  01:34        2.05
  YS02001652           JUNCTION     0.58     2.15     8.75     0  01:40        2.14
  YS02001655           JUNCTION     0.47     2.20     9.05     0  01:39        2.20
  YS02001658           JUNCTION     0.37     2.24     9.38     0  01:40        2.24
  YS02001661           JUNCTION     0.33     2.30     9.70     0  01:40        2.30
  YS02001664           JUNCTION     0.15     2.11    10.03     0  01:40        2.11
  YS02001745           JUNCTION     0.21     1.42     8.94     0  01:40        1.42
  YS02001748           JUNCTION     0.35     1.73     8.81     0  01:40        1.73
  YS02001751           JUNCTION     0.42     1.81     8.69     0  01:40        1.81
  YS02001754           JUNCTION     0.54     1.97     8.58     0  01:40        1.97
  YS02001757           JUNCTION     0.73     2.21     8.47     0  01:44        2.19
  YS02001759           JUNCTION     0.67     2.21     8.57     0  01:36        2.21
  YS02001762           JUNCTION     0.66     2.15     8.55     0  01:36        2.15
  YS02001765           JUNCTION     0.64     2.10     8.55     0  01:44        2.08
  YS02001767           JUNCTION     0.62     2.03     8.52     0  01:44        2.01
  YS02001770           JUNCTION     0.63     1.95     8.44     0  01:33        1.95
  YS02001774           JUNCTION     0.69     2.05     8.47     0  01:44        2.05
  YS02001779           JUNCTION     0.51     1.68     8.37     0  01:29        1.68
  YS02001783           JUNCTION     0.38     1.41     7.55     0  01:40        1.41
  YS02001784           JUNCTION     0.37     1.36     7.43     0  02:20        1.25
  YS02001786           JUNCTION     0.31     0.98     7.01     0  01:44        0.95
  YS02001788           JUNCTION     0.22     0.66     6.63     0  01:39        0.66
  YS02001790           JUNCTION     0.26     0.74     6.38     0  01:41        0.74
  YS02001791           JUNCTION     0.16     0.46     5.93     0  01:41        0.44
  YS02001793           JUNCTION     0.08     0.31     5.14     0  01:43        0.30
  YS02001882           JUNCTION     0.48     1.83     8.55     0  01:37        1.83
  YS02001884           JUNCTION     0.57     1.93     8.55     0  01:37        1.92
  YS02001887           JUNCTION     0.65     2.00     8.54     0  01:36        2.00
  YS02001890           JUNCTION     0.67     1.81     8.32     0  01:29        1.81
  YS02001895           JUNCTION     0.44     1.68     8.43     0  01:44        1.68
  YS02001898           JUNCTION     0.45     1.60     8.34     0  01:44        1.60
  YS02001901           JUNCTION     0.56     1.87     8.48     0  02:20        1.87
  YS02001904           JUNCTION     0.54     1.72     8.35     0  02:20        1.65
  YS02001907           JUNCTION     0.85     1.96     8.25     0  01:29        1.96
  YS02001910           JUNCTION     0.67     2.08     8.59     0  01:44        2.08
  YS02001915           JUNCTION     0.50     2.00     8.72     0  01:34        2.00
  YS02001918           JUNCTION     0.33     1.81     8.88     0  01:29        1.81
  YS02001920           JUNCTION     0.41     2.12     9.12     0  01:29        2.02
  YS02001923           JUNCTION     0.27     2.03     9.29     0  01:29        1.92
  YS02001926           JUNCTION     0.28     1.90     9.35     0  01:29        1.90
  YS02001929           JUNCTION     0.19     1.78     9.47     0  01:29        1.78
  YS02006553           JUNCTION     0.86     2.09     8.38     0  01:40        2.09
  YS02006556           JUNCTION     0.83     2.24     8.55     0  01:40        2.24
  YS02006558           JUNCTION     0.87     2.39     8.66     0  01:40        2.39
  YS02006561           JUNCTION     0.25     1.13     7.79     0  01:40        1.13
  YS02163301           JUNCTION     0.77     2.01     8.52     0  02:20        1.96
  YS02163601           JUNCTION     0.86     2.08     8.48     0  01:44        2.08
  YS02164001           JUNCTION     0.79     2.10     8.56     0  02:20        2.00
  YSB1154              JUNCTION     0.68     2.10    11.16     0  01:34        2.10
  YSB1171              JUNCTION     0.80     1.95    10.85     0  01:28        1.95
  YSB1174              JUNCTION     0.62     1.95    11.06     0  01:35        1.95
  YSB6556              JUNCTION     0.56     1.80    10.97     0  01:34        1.80
  CC-1                 OUTFALL      0.00     0.00     0.00     0  00:00        0.00
  CC-2                 OUTFALL      0.00     0.00     0.00     0  00:00        0.00
  JK-1                 OUTFALL      0.00     0.00     0.00     0  00:00        0.00
  JK-2                 OUTFALL      0.00     0.00     0.00     0  00:00        0.00
  WSC                  OUTFALL      0.33     0.54     1.21     0  01:44        0.54
  CC-storage           STORAGE      1.11     2.10     7.60     0  02:29        2.10
  JK-storage           STORAGE      2.21     4.23     5.03     0  01:43        4.20
  XR-storage           STORAGE      7.86     9.26     7.26     0  08:00        9.26
  
  
  *******************
  Node Inflow Summary
  *******************
  
  -------------------------------------------------------------------------------------------------
                                  Maximum  Maximum                  Lateral       Total        Flow
                                  Lateral    Total  Time of Max      Inflow      Inflow     Balance
                                   Inflow   Inflow   Occurrence      Volume      Volume       Error
  Node                 Type           LPS      LPS  days hr:min    10^6 ltr    10^6 ltr     Percent
  -------------------------------------------------------------------------------------------------
  HS02004478           JUNCTION      0.00  2309.89     0  01:44           0          14      -0.007
  HS02004479           JUNCTION      0.00   420.69     0  01:28           0        1.37       0.066
  HS02004480           JUNCTION      0.00  2101.73     0  01:27           0        10.2       0.012
  HS02004770           JUNCTION   4930.43  5348.54     0  01:40        8.09        8.59       0.032
  HS02004777           JUNCTION      0.03   739.29     0  01:25    0.000864        2.67       0.195
  HS02004785           JUNCTION      0.15   740.06     0  01:25     0.00432        2.67       0.015
  HS02004788           JUNCTION   1798.18  1798.18     0  01:40        2.85        5.26       0.001
  HS02004792           JUNCTION   6203.00  7292.70     0  01:39        11.2        16.1      -0.000
  HS02004799           JUNCTION   1018.19  2160.29     0  01:40        1.43        9.91       0.038
  HS02004802           JUNCTION      0.00  1235.92     0  01:44           0        4.35       0.085
  HS02004807           JUNCTION   1252.65  2449.21     0  01:40        1.79        5.46       0.078
  HS02004817           JUNCTION      0.60  1197.05     0  01:46      0.0173        3.72       0.456
  HS02004824           JUNCTION   2059.34  2756.78     0  01:40        3.57        5.15       0.011
  HS02004830           JUNCTION      0.15   696.51     0  01:40     0.00432        1.89       0.077
  HS02004837           JUNCTION   1215.90  1215.90     0  01:40        1.97        2.58       0.023
  HS02004842           JUNCTION      0.00  1664.09     0  01:40           0        2.27       0.577
  HS02004848           JUNCTION   1920.81  1920.81     0  01:40        3.82        4.64       0.002
  HS02004852           JUNCTION      0.00  1043.03     0  01:28           0        3.44      -0.003
  HS02004856           JUNCTION    515.37  1294.36     0  01:40       0.725        4.16       0.023
  HS02004862           JUNCTION    861.53  1864.48     0  01:40        1.61         5.7      -0.001
  HS02004870           JUNCTION    689.11  1297.22     0  01:28       0.984        5.53      -0.002
  HS02004876           JUNCTION    740.98  1642.35     0  01:40        1.15        6.68       0.011
  HS02004881           JUNCTION    364.57  1750.03     0  01:44       0.529        7.14       0.016
  HS02004901           JUNCTION   1119.21  1384.86     0  01:40        1.73        2.65       0.066
  WS02001211           JUNCTION      7.35   308.95     0  01:27       0.212        5.44       0.611
  WS02001212           JUNCTION      0.00   291.00     0  01:24           0        5.41       0.290
  WS02001213           JUNCTION      0.00   265.46     0  01:30           0         5.4       0.328
  WS02003059           JUNCTION      0.00   291.29     0  01:23           0        5.41       0.591
  WS02003060           JUNCTION     16.53  1616.96     0  01:41       0.476        16.9       0.086
  WS02003066           JUNCTION      0.00  1404.77     0  01:35           0        11.1       0.013
  WS02003067           JUNCTION      0.00  1402.27     0  01:44           0        11.1       0.039
  WS02003069           JUNCTION      0.32  1615.33     0  01:43     0.00922        16.9       0.091
  WS02003072           JUNCTION      0.00  1614.84     0  01:43           0        16.9       0.123
  WS02003073           JUNCTION      1.82  1616.47     0  01:44      0.0524        16.9       0.127
  WS02004138           JUNCTION      0.00   380.00     0  00:00           0        5.25       0.052
  WS02004139           JUNCTION      0.32   229.31     0  01:26     0.00924        5.26       0.509
  WS02004401           JUNCTION      0.00  1401.18     0  01:44           0        11.2       0.095
  WS02004402           JUNCTION      0.00  1400.55     0  01:44           0        11.2       0.093
  WS02004403           JUNCTION      0.00  1400.41     0  01:44           0        11.2       0.091
  WS02004404           JUNCTION      0.16  1401.06     0  01:44     0.00467        11.2       0.077
  WS02004405           JUNCTION      0.04  1402.11     0  01:44      0.0011        11.2       0.111
  WS02004406           JUNCTION      0.00  1403.33     0  01:44           0        11.1       0.188
  WS02004407           JUNCTION      0.00  1404.17     0  01:44           0        11.1       0.013
  WS02004409           JUNCTION      0.00  1400.44     0  01:44           0        11.1       0.027
  WS02004410           JUNCTION      0.00  1400.40     0  01:44           0        11.1       0.041
  WS02004411           JUNCTION      0.00  1400.36     0  01:46           0        11.1       0.053
  WS02004412           JUNCTION      0.00  1400.08     0  01:44           0        11.1       0.069
  WS02004413           JUNCTION      0.00  1401.64     0  01:44           0        11.1       0.122
  WS02006109           JUNCTION      1.23  1289.62     0  01:32      0.0354        10.8       0.069
  WS02006110           JUNCTION      0.00  1131.12     0  02:20           0        9.89       0.074
  WS02006111           JUNCTION      0.00  1124.04     0  02:20           0        9.88       0.004
  WS02006112           JUNCTION    961.34  1798.44     0  01:38         1.5        11.4       0.174
  WS02006113           JUNCTION      0.00  1129.11     0  02:20           0        9.88       0.024
  WS02006115           JUNCTION      0.00  1402.57     0  01:44           0        11.2       0.063
  WS02006116           JUNCTION      0.00  1402.02     0  01:44           0        11.2      -0.022
  WS02006228           JUNCTION      0.00  1290.84     0  01:44           0        10.8       0.025
  WS02006229           JUNCTION      0.00  2306.13     0  01:33           0          16       0.044
  WS02006230           JUNCTION     10.28  1026.84     0  01:32       0.296        7.17       0.134
  WS02006231           JUNCTION      0.00   454.07     0  02:20           0        4.56      -0.127
  WS02006232           JUNCTION      0.00   453.40     0  02:22           0        4.54       0.091
  WS02006234           JUNCTION      0.00   453.18     0  01:25           0         4.5      -0.056
  WS02006235           JUNCTION      0.00   430.77     0  02:20           0        4.36       0.022
  WS02006238           JUNCTION      0.00   419.58     0  02:20           0        4.11      -0.071
  WS02006239           JUNCTION      0.00   419.12     0  03:47           0        4.07      -0.087
  WS02006240           JUNCTION      0.00   419.05     0  03:47           0        4.04      -0.029
  WS02006242           JUNCTION      0.00   419.02     0  03:47           0        4.01      -0.014
  WS02006243           JUNCTION      0.00   503.07     0  01:19           0        3.16      -0.029
  WS02006245           JUNCTION      0.00   418.92     0  03:47           0        3.16       0.237
  WS02006247           JUNCTION      0.00   475.95     0  01:19           0        3.15       0.010
  WS02006248           JUNCTION      0.00   549.26     0  01:20           0         3.5      -0.006
  WS02006249           JUNCTION      0.00  1410.67     0  01:37           0        9.25       0.043
  WS02006251           JUNCTION      0.08  1830.35     0  01:37     0.00222        9.86      -0.013
  WS02006252           JUNCTION      0.00   819.69     0  01:37           0         4.4      -0.021
  WS02006253           JUNCTION    113.61  1830.61     0  01:37       0.152         7.3      -0.015
  WS02006256           JUNCTION      0.00   300.00     0  00:00           0        2.21      -0.108
  WS02006280           JUNCTION      0.00  2314.47     0  01:44           0          14      -0.006
  WS02006284           JUNCTION      0.10  2320.80     0  01:44     0.00275          14       0.014
  WS02006287           JUNCTION      0.00  2312.45     0  01:44           0          14       0.021
  WSF200               JUNCTION      0.00  1405.21     0  01:35           0        11.1       0.005
  YS02001580           JUNCTION      0.00   112.47     0  01:25           0     0.00406      -5.304
  YS02001583           JUNCTION      0.00   157.72     0  01:25           0      0.0153      -4.010
  YS02001586           JUNCTION   2488.89  2489.04     0  01:40        4.61        4.62       0.028
  YS02001590           JUNCTION      0.00   327.29     0  02:20           0        2.05      -0.018
  YS02001593           JUNCTION      0.00   322.30     0  02:20           0        2.05       0.012
  YS02001596           JUNCTION      0.00   318.03     0  02:34           0        2.05      -0.010
  YS02001600           JUNCTION      0.00   318.28     0  01:44           0        2.05       0.003
  YS02001601           JUNCTION   3928.20  4245.52     0  01:40        5.91        7.96       0.008
  YS02001602           JUNCTION      0.00   526.29     0  01:25           0        3.02       0.008
  YS02001605           JUNCTION      0.00   526.86     0  01:25           0        2.71       0.012
  YS02001607           JUNCTION      0.00   527.56     0  01:25           0        2.71       0.066
  YS02001610           JUNCTION      0.00   955.90     0  01:51           0        3.87       0.059
  YS02001613           JUNCTION      0.00   619.24     0  01:51           0        2.75       0.043
  YS02001616           JUNCTION      0.00   620.28     0  01:51           0        2.76       0.025
  YS02001619           JUNCTION   4348.12  4348.12     0  01:40        7.26        8.86      -0.002
  YS02001622           JUNCTION      0.00  1058.99     0  01:44           0        6.09      -0.001
  YS02001625           JUNCTION      0.00  1505.46     0  01:48           0         6.9       0.169
  YS02001629           JUNCTION      0.00  1139.03     0  01:44           0        4.32      -0.029
  YS02001633           JUNCTION   2951.79  2951.79     0  01:40        4.48        7.35       0.041
  YS02001641           JUNCTION      0.00  1393.63     0  01:28           0        5.65       0.048
  YS02001644           JUNCTION   2571.88  4321.66     0  01:40        3.76          10       0.030
  YS02001647           JUNCTION      0.00  1804.82     0  01:28           0        6.46       0.006
  YS02001649           JUNCTION      0.00  2409.22     0  01:40           0        9.49      -0.001
  YS02001652           JUNCTION      0.00  2409.87     0  01:40           0        3.64      -0.040
  YS02001655           JUNCTION      0.15  2422.31     0  01:40     0.00443        3.64       0.019
  YS02001658           JUNCTION      0.00  2421.34     0  01:40           0        3.63      -0.025
  YS02001661           JUNCTION      0.00  2419.52     0  01:40           0        3.63      -0.041
  YS02001664           JUNCTION   2417.52  2417.52     0  01:40        3.63        3.63       0.001
  YS02001745           JUNCTION   1422.06  1422.06     0  01:40        2.05        2.05       0.074
  YS02001748           JUNCTION      0.04  1422.42     0  01:40      0.0013        2.05      -0.149
  YS02001751           JUNCTION      0.01  1424.18     0  01:40    0.000317        2.06       0.058
  YS02001754           JUNCTION      0.26  1427.62     0  01:40     0.00749        2.07      -0.075
  YS02001757           JUNCTION      0.00  3385.36     0  01:35           0        15.4       0.025
  YS02001759           JUNCTION   2006.15  2006.15     0  01:40        2.97           5      -0.008
  YS02001762           JUNCTION      0.00   743.79     0  01:31           0        2.26      -0.001
  YS02001765           JUNCTION      0.00   745.50     0  01:31           0        2.26      -0.011
  YS02001767           JUNCTION      0.54   744.25     0  01:31      0.0154        2.26       0.006
  YS02001770           JUNCTION   2981.33  3577.00     0  01:40        4.35        4.63      -0.010
  YS02001774           JUNCTION      0.00   852.08     0  01:45           0        1.26       0.061
  YS02001779           JUNCTION      0.01   851.77     0  01:44    0.000144        1.22      -0.062
  YS02001783           JUNCTION      0.00  1269.29     0  01:40           0        6.38       0.004
  YS02001784           JUNCTION      1.06  1271.31     0  01:40      0.0305        6.41       0.009
  YS02001786           JUNCTION      0.06  1271.86     0  01:40     0.00162        6.41       0.005
  YS02001788           JUNCTION      0.07  1273.48     0  01:40     0.00204        6.41       0.004
  YS02001790           JUNCTION      0.15  1279.90     0  01:40     0.00446        6.42       0.029
  YS02001791           JUNCTION      0.00  1341.07     0  01:41           0        6.42      -0.047
  YS02001793           JUNCTION      0.00  1309.40     0  01:39           0        6.42       0.005
  YS02001882           JUNCTION      0.00    58.13     0  01:44           0       0.015       4.856
  YS02001884           JUNCTION      0.00    74.78     0  01:25           0      0.0529       5.022
  YS02001887           JUNCTION   2054.56  2054.59     0  01:37        3.01        3.05       0.146
  YS02001890           JUNCTION      0.00  2042.59     0  01:37           0           3       0.166
  YS02001895           JUNCTION      0.00   518.65     0  01:44           0        1.97       0.096
  YS02001898           JUNCTION      0.00   517.93     0  01:44           0        1.97      -0.014
  YS02001901           JUNCTION      0.00   518.07     0  01:53           0        1.97       0.168
  YS02001904           JUNCTION      0.00   520.41     0  01:44           0        1.98       0.140
  YS02001907           JUNCTION      0.00  4223.24     0  01:40           0        8.06       0.219
  YS02001910           JUNCTION      0.00  1993.21     0  01:44           0        5.22       0.138
  YS02001915           JUNCTION   2764.01  3983.50     0  01:40        3.89        6.13       0.025
  YS02001918           JUNCTION      0.00  1442.60     0  01:40           0        2.29       0.003
  YS02001920           JUNCTION      2.87  1440.98     0  01:40      0.0827        2.27       0.046
  YS02001923           JUNCTION      0.04  1432.79     0  01:40     0.00109        2.17      -0.039
  YS02001926           JUNCTION      0.05  1429.42     0  01:40      0.0015        2.15      -0.002
  YS02001929           JUNCTION   1428.20  1428.20     0  01:40        2.14        2.14      -0.018
  YS02006553           JUNCTION      0.00  1712.42     0  01:40           0        3.89       0.306
  YS02006556           JUNCTION      0.00  1706.93     0  01:40           0         3.9       0.208
  YS02006558           JUNCTION   2972.74  2972.74     0  01:40        4.28        7.28       0.058
  YS02006561           JUNCTION      0.00  1268.59     0  01:40           0        6.38      -0.004
  YS02163301           JUNCTION      0.00  1138.87     0  01:42           0        4.31       0.033
  YS02163601           JUNCTION      0.11  1395.89     0  01:28     0.00317        5.64       0.085
  YS02164001           JUNCTION      0.00  1395.19     0  01:28           0        5.64       0.036
  YSB1154              JUNCTION   1245.66  1245.66     0  01:40        1.86        1.86       0.078
  YSB1171              JUNCTION      0.00  1629.85     0  01:37           0        3.42       0.184
  YSB1174              JUNCTION    973.59   973.59     0  01:37        1.41        1.41       0.093
  YSB6556              JUNCTION      0.00   725.69     0  01:46           0        1.67       0.078
  CC-1                 OUTFALL       0.00   683.00     0  00:00           0        6.22       0.000
  CC-2                 OUTFALL       0.00   683.00     0  00:00           0        6.05       0.000
  JK-1                 OUTFALL       0.00  1000.00     0  00:00           0        4.18       0.000
  JK-2                 OUTFALL       0.00  1000.00     0  00:00           0      0.0484       0.000
  WSC                  OUTFALL       0.00  1616.24     0  01:44           0        16.9       0.000
  CC-storage           STORAGE       0.00  3385.09     0  01:35           0        17.6      -0.152
  JK-storage           STORAGE       0.00  1309.28     0  01:39           0        6.57      -0.052
  XR-storage           STORAGE     200.00   200.00     0  00:00        5.76        6.36       0.001
  
  
  **********************
  Node Surcharge Summary
  **********************
  
  Surcharging occurs when water rises above the top of the highest conduit.
  ---------------------------------------------------------------------
                                               Max. Height   Min. Depth
                                   Hours       Above Crown    Below Rim
  Node                 Type      Surcharged         Meters       Meters
  ---------------------------------------------------------------------
  HS02004478           JUNCTION        1.21          0.803        0.137
  HS02004479           JUNCTION        1.41          1.050        0.000
  HS02004480           JUNCTION        1.48          1.088        0.012
  HS02004770           JUNCTION        1.33          0.720        0.000
  HS02004777           JUNCTION        1.34          0.780        0.000
  HS02004785           JUNCTION        1.26          0.790        0.000
  HS02004788           JUNCTION        1.24          0.720        0.000
  HS02004792           JUNCTION        1.44          0.900        0.000
  HS02004799           JUNCTION        1.67          1.060        0.000
  HS02004802           JUNCTION        1.48          1.102        0.108
  HS02004807           JUNCTION        1.46          1.220        0.000
  HS02004817           JUNCTION        1.89          1.713        0.027
  HS02004824           JUNCTION        1.23          1.310        0.000
  HS02004830           JUNCTION        1.19          1.330        0.000
  HS02004837           JUNCTION        1.13          1.273        0.067
  HS02004842           JUNCTION        1.34          1.520        0.000
  HS02004848           JUNCTION        1.08          1.370        0.000
  HS02004852           JUNCTION        1.12          1.373        0.047
  HS02004856           JUNCTION        1.10          1.300        0.000
  HS02004862           JUNCTION        1.16          1.300        0.000
  HS02004870           JUNCTION        1.19          1.400        0.000
  HS02004876           JUNCTION        1.30          1.560        0.000
  HS02004881           JUNCTION        1.27          1.407        0.043
  HS02004901           JUNCTION        1.34          0.720        0.000
  WS02004401           JUNCTION        2.05          1.324        0.336
  WS02004402           JUNCTION        2.08          1.360        0.380
  WS02004403           JUNCTION        2.08          1.334        0.696
  WS02004404           JUNCTION        2.24          1.337        1.443
  WS02004405           JUNCTION        2.20          1.240        1.560
  WS02004406           JUNCTION        2.17          1.048        1.402
  WS02004407           JUNCTION        0.30          0.098        2.242
  WS02004409           JUNCTION        1.73          0.511        1.849
  WS02004410           JUNCTION        1.72          0.394        2.146
  WS02004411           JUNCTION        1.70          0.311        2.219
  WS02004412           JUNCTION        1.65          0.390        1.920
  WS02004413           JUNCTION        1.88          0.355        1.845
  WS02006109           JUNCTION        2.77          1.820        0.000
  WS02006110           JUNCTION        2.54          1.850        0.000
  WS02006111           JUNCTION        1.84          1.870        0.000
  WS02006112           JUNCTION        2.67          1.680        0.000
  WS02006113           JUNCTION        1.86          1.930        0.000
  WS02006115           JUNCTION        1.95          1.247        1.003
  WS02006116           JUNCTION        1.97          1.248        1.042
  WS02006228           JUNCTION        2.77          2.200        0.000
  WS02006229           JUNCTION        1.73          1.070        0.000
  WS02006230           JUNCTION        2.30          1.570        0.000
  WS02006231           JUNCTION        2.54          1.488        0.042
  WS02006232           JUNCTION        2.70          1.480        0.000
  WS02006234           JUNCTION        2.66          1.240        0.000
  WS02006235           JUNCTION        2.67          1.290        0.000
  WS02006238           JUNCTION        2.68          1.307        0.123
  WS02006239           JUNCTION        2.66          1.290        0.000
  WS02006240           JUNCTION        2.65          1.191        0.199
  WS02006242           JUNCTION        2.66          0.820        0.000
  WS02006243           JUNCTION        2.64          0.770        0.000
  WS02006245           JUNCTION        2.64          0.850        0.000
  WS02006247           JUNCTION        2.64          0.760        0.000
  WS02006248           JUNCTION        2.62          0.380        0.000
  WS02006249           JUNCTION        2.63          0.390        0.000
  WS02006251           JUNCTION        2.60          1.180        0.000
  WS02006252           JUNCTION        2.74          1.100        0.000
  WS02006253           JUNCTION        2.60          2.480        0.000
  WS02006256           JUNCTION        4.77          2.050        0.000
  WS02006280           JUNCTION        1.67          0.764        0.016
  WS02006284           JUNCTION        1.52          0.800        0.000
  WS02006287           JUNCTION        1.36          0.890        0.000
  YS02001580           JUNCTION        1.34          0.450        0.000
  YS02001583           JUNCTION        1.35          0.500        0.000
  YS02001586           JUNCTION        1.63          0.510        0.000
  YS02001590           JUNCTION        1.67          0.750        0.000
  YS02001593           JUNCTION        1.67          0.741        0.099
  YS02001596           JUNCTION        1.76          1.030        0.040
  YS02001600           JUNCTION        1.84          1.190        0.000
  YS02001601           JUNCTION        2.04          1.440        0.000
  YS02001602           JUNCTION        1.99          1.270        0.000
  YS02001605           JUNCTION        1.96          1.180        0.000
  YS02001607           JUNCTION        1.68          0.680        0.000
  YS02001610           JUNCTION        1.70          0.680        0.000
  YS02001613           JUNCTION        1.68          0.700        0.000
  YS02001616           JUNCTION        1.65          0.610        0.000
  YS02001619           JUNCTION        1.64          0.610        0.000
  YS02001622           JUNCTION        1.64          0.620        0.000
  YS02001625           JUNCTION        1.77          0.780        0.000
  YS02001629           JUNCTION        1.63          0.470        0.000
  YS02001633           JUNCTION        1.82          1.060        0.000
  YS02001641           JUNCTION        1.80          1.100        0.000
  YS02001644           JUNCTION        1.79          0.920        0.000
  YS02001647           JUNCTION        1.62          0.900        0.000
  YS02001649           JUNCTION        1.74          1.050        0.000
  YS02001652           JUNCTION        1.58          1.120        0.010
  YS02001655           JUNCTION        1.49          1.200        0.000
  YS02001658           JUNCTION        0.94          1.242        0.058
  YS02001661           JUNCTION        0.37          1.231        0.159
  YS02001664           JUNCTION        0.18          1.108        0.202
  YS02001745           JUNCTION        0.16          0.423        0.927
  YS02001748           JUNCTION        0.71          0.650        0.540
  YS02001751           JUNCTION        1.35          0.813        0.387
  YS02001754           JUNCTION        1.55          0.922        0.228
  YS02001757           JUNCTION        1.81          1.210        0.000
  YS02001759           JUNCTION        1.74          1.210        0.000
  YS02001762           JUNCTION        1.71          1.150        0.000
  YS02001765           JUNCTION        1.68          1.100        0.000
  YS02001767           JUNCTION        1.65          1.030        0.000
  YS02001770           JUNCTION        1.63          0.920        0.000
  YS02001774           JUNCTION        1.70          1.050        0.000
  YS02001779           JUNCTION        1.54          0.680        0.000
  YS02001783           JUNCTION        1.11          0.613        0.987
  YS02001784           JUNCTION        1.08          0.557        0.933
  YS02001786           JUNCTION        0.92          0.179        1.251
  YS02001882           JUNCTION        1.03          0.830        0.000
  YS02001884           JUNCTION        1.04          0.870        0.000
  YS02001887           JUNCTION        1.10          0.950        0.000
  YS02001890           JUNCTION        1.12          0.760        0.000
  YS02001895           JUNCTION        1.01          0.678        0.072
  YS02001898           JUNCTION        1.00          0.574        0.166
  YS02001901           JUNCTION        1.08          0.870        0.000
  YS02001904           JUNCTION        1.06          0.718        0.132
  YS02001907           JUNCTION        1.44          0.950        0.000
  YS02001910           JUNCTION        1.16          1.080        0.020
  YS02001915           JUNCTION        1.03          1.000        0.000
  YS02001918           JUNCTION        0.90          0.810        0.000
  YS02001920           JUNCTION        0.93          1.115        0.025
  YS02001923           JUNCTION        0.41          0.820        0.000
  YS02001926           JUNCTION        0.44          0.900        0.000
  YS02001929           JUNCTION        0.30          0.780        0.000
  YS02006553           JUNCTION        1.49          1.092        0.098
  YS02006556           JUNCTION        1.28          1.202        0.148
  YS02006558           JUNCTION        1.27          1.290        0.110
  YS02006561           JUNCTION        0.86          0.332        0.818
  YS02163301           JUNCTION        1.80          1.007        0.023
  YS02163601           JUNCTION        1.86          1.080        0.000
  YS02164001           JUNCTION        1.80          1.100        0.000
  YSB1154              JUNCTION        1.76          1.400        0.000
  YSB1171              JUNCTION        1.76          1.100        0.000
  YSB1174              JUNCTION        1.71          1.250        0.000
  YSB6556              JUNCTION        1.58          1.100        0.000
  
  
  *********************
  Node Flooding Summary
  *********************
  
  Flooding refers to all water that overflows a node, whether it ponds or not.
  --------------------------------------------------------------------------
                                                             Total   Maximum
                                 Maximum   Time of Max       Flood    Ponded
                        Hours       Rate    Occurrence      Volume     Depth
  Node                 Flooded       LPS   days hr:min    10^6 ltr    Meters
  --------------------------------------------------------------------------
  HS02004479              0.01      1.50      0  01:44       0.000     0.000
  HS02004770              0.95   5081.78      0  01:40       5.255     0.000
  HS02004777              0.01     32.76      0  01:44       0.000     0.000
  HS02004785              0.01    117.63      0  01:25       0.000     0.000
  HS02004788              0.12    290.87      0  01:40       0.062     0.000
  HS02004792              0.99   6150.45      0  01:39       7.628     0.000
  HS02004799              0.58    854.01      0  01:40       0.657     0.000
  HS02004807              0.50   1216.93      0  01:40       1.062     0.000
  HS02004824              0.43   1559.36      0  01:40       1.122     0.000
  HS02004830              0.01      2.88      0  01:44       0.000     0.000
  HS02004842              0.42   1662.64      0  01:40       1.216     0.000
  HS02004848              0.01      0.18      0  01:40       0.000     0.000
  HS02004856              0.14    457.94      0  01:28       0.071     0.000
  HS02004862              0.39   1651.48      0  01:40       1.151     0.000
  HS02004870              0.01     12.40      0  01:44       0.000     0.000
  HS02004876              0.12    271.63      0  01:40       0.070     0.000
  HS02004901              1.11   1384.67      0  01:40       2.403     0.000
  WS02006109              1.08    451.34      0  01:42       0.934     0.000
  WS02006110              0.01     20.85      0  01:20       0.000     0.000
  WS02006111              0.01    118.98      0  01:20       0.000     0.000
  WS02006112              0.20    399.33      0  01:38       0.160     0.000
  WS02006113              0.01    159.76      0  01:20       0.000     0.000
  WS02006228              0.01      9.22      0  01:44       0.000     0.000
  WS02006229              0.01     18.84      0  02:20       0.000     0.000
  WS02006230              1.52    573.71      0  01:44       2.353     0.000
  WS02006232              0.38      1.32      0  02:20       0.000     0.000
  WS02006234              1.67    129.26      0  01:26       0.725     0.000
  WS02006235              0.01      4.92      0  01:21       0.000     0.000
  WS02006239              0.01    192.32      0  01:18       0.000     0.000
  WS02006242              1.74    333.27      0  01:19       0.833     0.000
  WS02006243              0.01    374.18      0  01:19       0.001     0.000
  WS02006245              0.01    167.94      0  01:19       0.000     0.000
  WS02006247              0.01    391.61      0  01:20       0.001     0.000
  WS02006248              1.83    455.58      0  01:20       2.088     0.000
  WS02006249              2.43   1358.10      0  01:37       7.512     0.000
  WS02006251              0.01     21.67      0  01:44       0.000     0.000
  WS02006252              1.18    819.57      0  01:37       1.851     0.000
  WS02006253              0.01    287.88      0  01:20       0.000     0.000
  WS02006256              2.05    293.19      0  00:00       1.392     0.000
  WS02006284              0.01      7.22      0  02:20       0.000     0.000
  WS02006287              0.01     12.29      0  02:20       0.000     0.000
  YS02001580              0.01     72.19      0  01:25       0.000     0.000
  YS02001583              0.01     46.02      0  01:25       0.000     0.000
  YS02001586              1.13   2170.48      0  01:40       2.559     0.000
  YS02001590              0.01     28.63      0  01:23       0.000     0.000
  YS02001600              0.01     40.22      0  02:20       0.000     0.000
  YS02001601              1.57   3845.64      0  01:40       4.934     0.000
  YS02001602              1.52     62.08      0  02:22       0.310     0.000
  YS02001605              0.01      7.47      0  02:20       0.000     0.000
  YS02001607              0.01      0.85      0  02:20       0.000     0.000
  YS02001610              1.23    955.29      0  01:51       2.272     0.000
  YS02001613              0.01      0.57      0  02:20       0.000     0.000
  YS02001616              0.14     48.46      0  02:20       0.001     0.000
  YS02001619              0.39   2674.77      0  01:40       1.606     0.000
  YS02001622              0.01     17.78      0  02:20       0.000     0.000
  YS02001625              1.33   1505.25      0  01:49       4.015     0.000
  YS02001629              0.43    705.43      0  01:37       0.648     0.000
  YS02001633              0.16    907.32      0  01:40       0.255     0.000
  YS02001641              0.01     35.84      0  02:20       0.000     0.000
  YS02001644              0.67   4320.44      0  01:40       4.143     0.000
  YS02001647              0.01     27.76      0  02:20       0.000     0.000
  YS02001649              0.16   1180.54      0  01:40       0.335     0.000
  YS02001655              0.01     15.61      0  01:40       0.000     0.000
  YS02001757              0.01     28.30      0  01:44       0.000     0.000
  YS02001759              0.01     24.44      0  01:44       0.000     0.000
  YS02001762              0.01     41.34      0  01:44       0.000     0.000
  YS02001765              0.01     25.89      0  01:44       0.000     0.000
  YS02001767              0.01     11.34      0  01:44       0.000     0.000
  YS02001770              0.28   2723.47      0  01:40       1.367     0.000
  YS02001774              0.01      0.29      0  01:44       0.000     0.000
  YS02001779              0.58    851.49      0  01:44       1.203     0.000
  YS02001882              0.01     23.71      0  01:44       0.000     0.000
  YS02001884              0.01     21.13      0  01:44       0.000     0.000
  YS02001887              0.02     38.22      0  01:37       0.001     0.000
  YS02001890              0.48   1526.53      0  01:37       1.028     0.000
  YS02001901              0.01      1.01      0  02:20       0.000     0.000
  YS02001907              0.78   4221.47      0  01:40       5.028     0.000
  YS02001915              0.25   1988.61      0  01:40       0.873     0.000
  YS02001918              0.07    221.79      0  01:40       0.024     0.000
  YS02001923              0.01    102.79      0  01:29       0.000     0.000
  YS02001926              0.01     59.44      0  01:29       0.000     0.000
  YS02001929              0.01    229.45      0  01:29       0.001     0.000
  YS02163601              0.01     62.42      0  02:20       0.000     0.000
  YS02164001              0.01     67.99      0  02:20       0.000     0.000
  YSB1154                 0.19    519.60      0  01:40       0.192     0.000
  YSB1171                 0.74   1629.74      0  01:37       2.501     0.000
  YSB1174                 0.12    222.80      0  01:37       0.057     0.000
  YSB6556                 0.23     85.86      0  01:39       0.063     0.000
  
  
  **********************
  Storage Volume Summary
  **********************
  
  --------------------------------------------------------------------------------------------------
                         Average     Avg  Evap Exfil       Maximum     Max    Time of Max    Maximum
                          Volume    Pcnt  Pcnt  Pcnt        Volume    Pcnt     Occurrence    Outflow
  Storage Unit           1000 m3    Full  Loss  Loss       1000 m3    Full    days hr:min        LPS
  --------------------------------------------------------------------------------------------------
  CC-storage               3.081      48     0     0         5.858      91       0  02:29    1783.53
  JK-storage               0.111      38     0     0         0.213      73       0  01:43    2300.00
  XR-storage               0.943      65     0     0         1.111      77       0  08:00     380.00
  
  
  ***********************
  Outfall Loading Summary
  ***********************
  
  -----------------------------------------------------------
                         Flow       Avg       Max       Total
                         Freq      Flow      Flow      Volume
  Outfall Node           Pcnt       LPS       LPS    10^6 ltr
  -----------------------------------------------------------
  CC-1                  48.55    683.00    683.00       6.216
  CC-2                  47.30    683.00    683.00       6.047
  JK-1                  22.02   1000.00   1000.00       4.180
  JK-2                   0.20   1000.00   1000.00       0.048
  WSC                   99.94    770.40   1616.24      16.892
  -----------------------------------------------------------
  System                43.60   4136.40   1616.24      33.383
  
  
  ********************
  Link Flow Summary
  ********************
  
  -----------------------------------------------------------------------------
                                 Maximum  Time of Max   Maximum    Max/    Max/
                                  |Flow|   Occurrence   |Veloc|    Full    Full
  Link                 Type          LPS  days hr:min     m/sec    Flow   Depth
  -----------------------------------------------------------------------------
  1                    CONDUIT   1616.24     0  01:44      3.76    0.56    0.54
  HS02004478WS02006287 CONDUIT   2312.45     0  01:44      2.73    0.65    1.00
  HS02004479HS02004480 CONDUIT    420.35     0  01:28      0.60    0.41    1.00
  HS02004480HS02004478 CONDUIT   2099.09     0  01:26      3.00    8.84    1.00
  HS02004770HS02004777 CONDUIT    739.26     0  01:25      1.06    1.35    1.00
  HS02004777HS02004785 CONDUIT    739.91     0  01:25      1.11    0.91    1.00
  HS02004785HS02004788 CONDUIT    611.95     0  02:32      1.36    4.61    1.00
  HS02004788HS02004792 CONDUIT   1089.71     0  01:42      1.56    0.72    1.00
  HS02004792HS02004799 CONDUIT   1630.69     0  01:26      2.33    1.00    1.00
  HS02004799HS02004480 CONDUIT   1765.85     0  01:26      2.52    2.23    1.00
  HS02004802HS02004478 CONDUIT   1235.34     0  01:44      1.76    1.09    1.00
  HS02004807HS02004802 CONDUIT   1235.92     0  01:44      1.77    2.36    1.00
  HS02004817HS02004807 CONDUIT   1197.07     0  01:43      1.71    0.71    1.00
  HS02004817HS02004824 CONDUIT   1196.45     0  01:46      1.71    0.54    1.00
  HS02004824HS02004830 CONDUIT    697.44     0  01:40      1.00    0.91    1.00
  HS02004830HS02004837 CONDUIT    696.36     0  01:40      0.99    0.69    1.00
  HS02004837HS02004842 CONDUIT    810.66     0  01:26      1.16    0.48    1.00
  HS02004842HS02004848 CONDUIT   1143.71     0  01:40      1.63    0.67    1.00
  HS02004848HS02004852 CONDUIT   1043.03     0  01:28      1.61    1.18    1.00
  HS02004852HS02004856 CONDUIT   1042.75     0  01:28      1.49    1.19    1.00
  HS02004856HS02004862 CONDUIT   1060.58     0  01:28      1.70    1.06    1.00
  HS02004862HS02004870 CONDUIT   1178.64     0  01:28      1.94    1.27    1.00
  HS02004870HS02004876 CONDUIT   1287.74     0  01:57      1.84    0.85    1.00
  HS02004876HS02004881 CONDUIT   1522.63     0  01:55      2.51   16.19    1.00
  HS02004881HS02006253 CONDUIT   1738.33     0  01:42      2.79    0.34    1.00
  HS02004901HS02004770 CONDUIT    265.79     0  02:20      0.38    1.00    1.00
  WS02001211WS02001212 CONDUIT    258.51     0  01:29      0.54    0.20    0.72
  WS02001212WS02001213 CONDUIT    265.46     0  01:30      1.04    0.41    0.59
  WS02001213WS02003059 CONDUIT    232.81     0  01:30      0.47    0.38    0.93
  WS02003059WS02003060 CONDUIT    245.76     0  01:31      0.66    0.16    0.84
  WS02003060WS02003069 CONDUIT   1615.01     0  01:43      2.12    0.63    0.64
  WS02003066WSF200     CONDUIT   1405.21     0  01:35      3.49    0.24    0.40
  WS02003067WS02003066 CONDUIT   1404.77     0  01:35      2.10    0.45    0.58
  WS02003069WS02003072 CONDUIT   1614.84     0  01:43      1.94    0.78    0.69
  WS02003072WS02003073 CONDUIT   1614.65     0  01:44      2.11    3.49    0.64
  WS02004138WS02004139 CONDUIT    190.63     0  00:29      2.18    0.04    0.43
  WS02004139WS02001211 CONDUIT    301.61     0  01:27      0.54    0.38    0.63
  WS02004401WS02004402 CONDUIT   1400.55     0  01:44      1.78    1.68    1.00
  WS02004402WS02004403 CONDUIT   1400.41     0  01:44      1.78    2.01    1.00
  WS02004403WS02004404 CONDUIT   1400.89     0  01:44      1.78    1.01    1.00
  WS02004404WS02004405 CONDUIT   1402.07     0  01:44      1.79   13.74    1.00
  WS02004405WS02004406 CONDUIT   1403.33     0  01:44      1.79    2.77    1.00
  WS02004406WS02004407 CONDUIT   1404.17     0  01:44      1.96    0.63    1.00
  WS02004407WS02004409 CONDUIT   1400.44     0  01:44      2.08    0.50    1.00
  WS02004409WS02004410 CONDUIT   1400.40     0  01:44      1.78    1.81    1.00
  WS02004410WS02004411 CONDUIT   1400.36     0  01:46      1.78    1.91    1.00
  WS02004411WS02004412 CONDUIT   1400.08     0  01:44      1.78    1.99    1.00
  WS02004412WS02004413 CONDUIT   1401.64     0  01:44      1.78    0.94    1.00
  WS02004413WS02003067 CONDUIT   1402.27     0  01:44      2.13    0.60    0.78
  WS02006109WS02006110 CONDUIT   1131.12     0  02:20      2.25    2.17    1.00
  WS02006110WS02006113 CONDUIT   1129.11     0  02:20      2.25    1.03    1.00
  WS02006111WS02006112 CONDUIT   1121.92     0  02:30      2.23    0.53    1.00
  WS02006112WS02006115 CONDUIT   1402.57     0  01:44      1.79    0.83    1.00
  WS02006113WS02006111 CONDUIT   1124.04     0  02:20      2.71    1.35    1.00
  WS02006115WS02006116 CONDUIT   1402.02     0  01:44      1.79    1.80    1.00
  WS02006116WS02004401 CONDUIT   1401.18     0  01:44      1.78    1.93    1.00
  WS02006228WS02006109 CONDUIT   1288.39     0  01:32      2.56    5.63    1.00
  WS02006229WS02006228 CONDUIT   1290.84     0  01:44      2.57    4.28    1.00
  WS02006230WS02006229 CONDUIT   1016.56     0  01:32      2.64   22.62    1.00
  WS02006231WS02006230 CONDUIT    454.07     0  02:20      1.34    6.89    1.00
  WS02006232WS02006231 CONDUIT    453.40     0  02:22      1.18    0.95    1.00
  WS02006234WS02006232 CONDUIT    453.18     0  01:25      1.41    0.92    1.00
  WS02006235WS02006234 CONDUIT    419.41     0  03:47      1.23    4.43    1.00
  WS02006238WS02006235 CONDUIT    419.58     0  02:20      1.45    0.94    1.00
  WS02006239WS02006238 CONDUIT    419.16     0  03:47      1.12    1.34    1.00
  WS02006240WS02006239 CONDUIT    419.12     0  03:47      1.26    1.32    1.00
  WS02006242WS02006240 CONDUIT    419.05     0  03:47      1.14    1.66    1.00
  WS02006243WS02006242 CONDUIT    419.02     0  03:47      1.34    0.90    1.00
  WS02006245WS02006243 CONDUIT    418.98     0  03:47      1.39    1.24    1.00
  WS02006247WS02006245 CONDUIT    418.92     0  03:47      1.37    3.32    1.00
  WS02006248WS02006247 CONDUIT    418.86     0  03:47      1.38    0.91    1.00
  WS02006249WS02006248 CONDUIT    419.46     0  03:37      1.38    2.30    1.00
  WS02006251WS02006249 CONDUIT   1410.67     0  01:37      3.67    4.07    1.00
  WS02006252WS02006251 CONDUIT    419.69     0  01:37     24.89    1.54    1.00
  WS02006253WS02006251 CONDUIT   1830.27     0  01:37      4.76    5.49    1.00
  WS02006256WS02006235 CONDUIT    288.93     0  00:00      4.23    3.06    1.00
  WS02006280WS02006229 CONDUIT   2306.13     0  01:33      4.87    0.49    1.00
  WS02006284WS02006280 CONDUIT   2314.47     0  01:44      3.14    0.97    1.00
  WS02006287WS02006284 CONDUIT   2320.70     0  01:44      2.95    1.08    1.00
  WSF200WS02003060     CONDUIT   1405.24     0  01:35      2.72    0.31    0.53
  YS02001580YS02001583 CONDUIT    112.47     0  01:25      0.63    0.44    1.00
  YS02001583YS02001586 CONDUIT    157.72     0  01:25      0.71    0.24    1.00
  YS02001586YS02001590 CONDUIT    327.29     0  02:20      1.26    0.57    1.00
  YS02001590YS02001593 CONDUIT    322.30     0  02:20      1.14    2.02    1.00
  YS02001593YS02001596 CONDUIT    318.03     0  02:34      1.64    0.50    1.00
  YS02001596YS02001600 CONDUIT    318.28     0  01:44      1.21    0.62    1.00
  YS02001600YS02001601 CONDUIT    318.80     0  01:44      1.13    0.55    1.00
  YS02001601YS02001602 CONDUIT    526.29     0  01:25      1.86    1.90    1.00
  YS02001602YS02001605 CONDUIT    526.86     0  01:25      1.86   11.15    1.00
  YS02001605YS02001607 CONDUIT    527.56     0  01:25      1.87    2.89    1.00
  YS02001607YS02001610 CONDUIT    535.09     0  01:25      0.68    0.51    1.00
  YS02001610YS02001613 CONDUIT    619.70     0  01:51      0.79    0.71    1.00
  YS02001613YS02001616 CONDUIT    619.24     0  01:51      0.79    0.53    1.00
  YS02001616YS02001619 CONDUIT    620.28     0  01:51      0.79    1.08    1.00
  YS02001619YS02001622 CONDUIT   1058.99     0  01:44      1.38    1.56    1.00
  YS02001622YS02001625 CONDUIT   1053.69     0  01:44      1.34    0.56    1.00
  YS02001625YS02001629 CONDUIT    927.19     0  01:27      1.18    0.44    1.00
  YS02001629YS02163301 CONDUIT   1139.03     0  01:44      1.45    1.40    1.00
  YS02001633YS02163601 CONDUIT   1395.78     0  01:28      1.78    1.47    1.00
  YS02001641YS02001644 CONDUIT   1392.75     0  01:28      1.77    4.50    1.00
  YS02001644YS02001647 CONDUIT   1804.82     0  01:28      2.30    1.06    1.00
  YS02001647YS02001649 CONDUIT   1821.53     0  01:28      2.37    0.96    1.00
  YS02001649YS02001757 CONDUIT   2050.19     0  01:28      2.61    1.24    1.00
  YS02001652YS02001649 CONDUIT   2409.22     0  01:40      3.07    1.19    1.00
  YS02001655YS02001652 CONDUIT   2409.87     0  01:40      3.07    1.17    1.00
  YS02001658YS02001655 CONDUIT   2422.16     0  01:40      3.08    1.03    1.00
  YS02001661YS02001658 CONDUIT   2421.34     0  01:40      3.08    0.95    1.00
  YS02001664YS02001661 CONDUIT   2419.52     0  01:40      3.08    0.76    1.00
  YS02001745YS02001748 CONDUIT   1422.37     0  01:40      2.16    0.55    1.00
  YS02001748YS02001751 CONDUIT   1424.16     0  01:40      1.81    0.72    1.00
  YS02001751YS02001754 CONDUIT   1427.36     0  01:40      1.82    0.69    1.00
  YS02001754YS02001757 CONDUIT   1430.20     0  01:40      1.82    0.58    1.00
  YS02001757CaochengTiaoxuchi CONDUIT   3385.09     0  01:35      4.31    1.47    1.00
  YS02001759YS02001757 CONDUIT   1536.69     0  01:37      1.96    1.09    1.00
  YS02001762YS02001759 CONDUIT    741.96     0  01:31      0.94    0.85    1.00
  YS02001765YS02001762 CONDUIT    743.79     0  01:31      0.95    0.70    1.00
  YS02001767YS02001765 CONDUIT    745.50     0  01:31      0.95    0.94    1.00
  YS02001770YS02001767 CONDUIT    743.72     0  01:31      0.95    2.95    1.00
  YS02001774YS02001770 CONDUIT    852.08     0  01:45      1.08    0.54    1.00
  YS02001779YS02001774 CONDUIT    851.77     0  01:44      1.08    0.43    1.00
  YS02001783YS02001784 CONDUIT   1270.25     0  01:40      2.53    1.75    1.00
  YS02001784YS02001785 CONDUIT   1271.81     0  01:40      2.53    2.96    1.00
  YS02001786YS02001788 CONDUIT   1273.41     0  01:40      2.65    2.45    0.91
  YS02001788YS02001790 CONDUIT   1279.74     0  01:40      2.83    0.94    0.86
  YS02001790YS02001791 CONDUIT   1341.07     0  01:41      3.48    1.46    0.72
  YS02001791YS02001793 CONDUIT   1309.40     0  01:39      6.86    0.56    0.45
  YS02001793JiankangQianchi CONDUIT   1309.28     0  01:39      2.61    0.10    0.66
  YS02001882YS02001884 CONDUIT     58.13     0  01:44      0.25    0.07    1.00
  YS02001884YS02001887 CONDUIT     74.78     0  01:25      0.19    0.10    1.00
  YS02001887YS02001890 CONDUIT   2042.59     0  01:37      2.60    3.50    1.00
  YS02001890YS02001895 CONDUIT    518.65     0  01:44      0.66    0.24    1.00
  YS02001895YS02001898 CONDUIT    517.93     0  01:44      0.66    0.90    1.00
  YS02001898YS02001901 CONDUIT    518.07     0  01:53      0.66    0.33    1.00
  YS02001901YS02001904 CONDUIT    520.41     0  01:44      0.66    0.81    1.00
  YS02001904YS02001907 CONDUIT    527.08     0  01:44      0.67    0.18    1.00
  YS02001907YS02006553 CONDUIT   1714.25     0  01:40      1.90    2.02    1.00
  YS02001910YS02001907 CONDUIT   1993.06     0  01:44      2.54    1.12    1.00
  YS02001915YS02001910 CONDUIT   1993.21     0  01:44      2.54    0.99    1.00
  YS02001918YS02001915 CONDUIT   1221.67     0  01:42      1.56    0.67    1.00
  YS02001920YS02001918 CONDUIT   1442.60     0  01:40      1.84    1.40    1.00
  YS02001923YS02001920 CONDUIT   1438.11     0  01:40      1.83    0.65    1.00
  YS02001926YS02001923 CONDUIT   1432.75     0  01:40      1.82    2.05    1.00
  YS02001929YS02001926 CONDUIT   1429.37     0  01:40      1.82    0.68    1.00
  YS02006553YS02006556 CONDUIT   1712.42     0  01:40      2.18    1.46    1.00
  YS02006556YS02006558 CONDUIT   1706.93     0  01:40      2.17    1.35    1.00
  YS02006558YS02006561 CONDUIT   1268.59     0  01:40      4.49    2.80    1.00
  YS02006561YS02001783 CONDUIT   1269.29     0  01:40      2.53    0.66    1.00
  YS02163301YS02001633 CONDUIT   1138.87     0  01:42      1.45    1.07    1.00
  YS02163601YS02164001 CONDUIT   1395.19     0  01:28      1.78    1.24    1.00
  YS02164001YS02001641 CONDUIT   1393.63     0  01:28      1.77    1.90    1.00
  YSB1154YSB6556       CONDUIT    725.69     0  01:46      1.89    1.30    1.00
  YSB1171HS02004479    CONDUIT    420.69     0  01:28      0.84    0.28    1.00
  YSB1174YSB1171       CONDUIT    750.69     0  01:42      1.95    1.15    1.00
  YSB6556YSB1171       CONDUIT    639.84     0  01:45      1.66    0.66    1.00
  CC-R1                PUMP       683.00     0  00:00              1.00
  CC-R2                PUMP       683.00     0  00:00              1.00
  CC-S1                PUMP       200.00     0  00:00              1.00
  CC-S2                PUMP       200.00     0  00:00              1.00
  JK-R1                PUMP      1000.00     0  00:00              1.00
  JK-R2                PUMP      1000.00     0  00:00              1.00
  JK-S                 PUMP       300.00     0  00:00              1.00
  XR-1                 PUMP        95.00     0  00:00              1.00
  XR-2                 PUMP        95.00     0  00:00              1.00
  XR-3                 PUMP        95.00     0  00:00              1.00
  XR-4                 PUMP        95.00     0  00:00              1.00
  
  
  ***************************
  Flow Classification Summary
  ***************************
  
  -------------------------------------------------------------------------------------
                      Adjusted    ---------- Fraction of Time in Flow Class ---------- 
                       /Actual         Up    Down  Sub   Sup   Up    Down  Norm  Inlet 
  Conduit               Length    Dry  Dry   Dry   Crit  Crit  Crit  Crit  Ltd   Ctrl  
  -------------------------------------------------------------------------------------
  1                       1.00   0.00  0.00  0.00  0.00  1.00  0.00  0.00  0.45  0.00
  HS02004478WS02006287    1.00   0.09  0.00  0.00  0.71  0.19  0.00  0.00  0.57  0.00
  HS02004479HS02004480    1.00   0.04  0.00  0.00  0.96  0.00  0.00  0.00  0.10  0.00
  HS02004480HS02004478    1.00   0.09  0.00  0.00  0.66  0.00  0.00  0.25  0.00  0.00
  HS02004770HS02004777    1.00   0.00  0.09  0.00  0.91  0.00  0.00  0.00  0.01  0.00
  HS02004777HS02004785    1.00   0.00  0.00  0.00  1.00  0.00  0.00  0.00  0.10  0.00
  HS02004785HS02004788    1.00   0.00  0.00  0.00  1.00  0.00  0.00  0.00  0.00  0.00
  HS02004788HS02004792    1.00   0.00  0.00  0.00  0.99  0.01  0.00  0.00  0.80  0.00
  HS02004792HS02004799    1.00   0.00  0.00  0.00  0.99  0.01  0.00  0.00  0.76  0.00
  HS02004799HS02004480    1.00   0.00  0.04  0.00  0.90  0.00  0.05  0.00  0.00  0.00
  HS02004802HS02004478    1.00   0.09  0.00  0.00  0.91  0.00  0.00  0.00  0.01  0.00
  HS02004807HS02004802    1.00   0.09  0.00  0.00  0.91  0.00  0.00  0.01  0.00  0.00
  HS02004817HS02004807    1.00   0.00  0.09  0.00  0.91  0.00  0.00  0.00  0.01  0.00
  HS02004817HS02004824    1.00   0.00  0.00  0.00  1.00  0.00  0.00  0.00  0.75  0.00
  HS02004824HS02004830    1.00   0.00  0.00  0.00  1.00  0.00  0.00  0.00  0.00  0.00
  HS02004830HS02004837    1.00   0.00  0.00  0.00  1.00  0.00  0.00  0.00  0.77  0.00
  HS02004837HS02004842    1.00   0.00  0.00  0.00  1.00  0.00  0.00  0.00  0.11  0.00
  HS02004842HS02004848    1.00   0.00  0.09  0.00  0.91  0.00  0.00  0.00  0.53  0.00
  HS02004848HS02004852    1.00   0.09  0.00  0.00  0.91  0.00  0.00  0.00  0.63  0.00
  HS02004852HS02004856    1.00   0.09  0.00  0.00  0.91  0.00  0.00  0.00  0.62  0.00
  HS02004856HS02004862    1.00   0.00  0.10  0.00  0.90  0.00  0.00  0.00  0.65  0.00
  HS02004862HS02004870    1.00   0.00  0.00  0.00  1.00  0.00  0.00  0.00  0.01  0.00
  HS02004870HS02004876    1.00   0.00  0.00  0.00  0.98  0.01  0.00  0.00  0.74  0.00
  HS02004876HS02004881    1.00   0.02  0.00  0.00  0.82  0.16  0.00  0.00  0.00  0.00
  HS02004881HS02006253    1.00   0.03  0.02  0.00  0.52  0.02  0.00  0.40  0.16  0.00
  HS02004901HS02004770    1.00   0.09  0.00  0.00  0.91  0.00  0.00  0.00  0.00  0.00
  WS02001211WS02001212    1.00   0.00  0.03  0.00  0.97  0.00  0.00  0.00  0.00  0.00
  WS02001212WS02001213    1.00   0.03  0.00  0.00  0.55  0.00  0.42  0.00  0.00  0.00
  WS02001213WS02003059    1.00   0.00  0.00  0.00  0.99  0.00  0.00  0.00  0.00  0.00
  WS02003059WS02003060    1.00   0.00  0.00  0.00  1.00  0.00  0.00  0.00  0.03  0.00
  WS02003060WS02003069    1.00   0.00  0.00  0.00  0.98  0.02  0.00  0.00  0.52  0.00
  WS02003066WSF200        1.00   0.06  0.00  0.00  0.00  0.94  0.00  0.00  0.59  0.00
[...]
  WS02006284WS02006280    1.00   0.09  0.00  0.00  0.32  0.01  0.00  0.58  0.00  0.00
  WS02006287WS02006284    1.00   0.08  0.02  0.00  0.62  0.28  0.00  0.01  0.62  0.00
  WSF200WS02003060        1.00   0.00  0.06  0.00  0.41  0.54  0.00  0.00  0.58  0.00
  YS02001580YS02001583    1.00   0.15  0.38  0.00  0.48  0.00  0.00  0.00  0.62  0.00
  YS02001583YS02001586    1.00   0.29  0.17  0.00  0.53  0.00  0.00  0.00  0.62  0.00
  YS02001586YS02001590    1.00   0.09  0.00  0.00  0.64  0.02  0.00  0.25  0.26  0.00
  YS02001590YS02001593    1.00   0.09  0.00  0.00  0.34  0.00  0.57  0.00  0.00  0.00
  YS02001593YS02001596    1.00   0.09  0.00  0.00  0.36  0.01  0.00  0.55  0.01  0.00
  YS02001596YS02001600    1.00   0.09  0.00  0.00  0.42  0.01  0.00  0.48  0.03  0.00
  YS02001600YS02001601    1.00   0.09  0.00  0.00  0.91  0.00  0.00  0.00  0.57  0.00
  YS02001601YS02001602    1.00   0.09  0.00  0.00  0.91  0.00  0.00  0.00  0.00  0.00
  YS02001602YS02001605    1.00   0.09  0.00  0.00  0.91  0.00  0.00  0.00  0.00  0.00
  YS02001605YS02001607    1.00   0.09  0.00  0.00  0.91  0.00  0.00  0.00  0.00  0.00
  YS02001607YS02001610    1.00   0.09  0.00  0.00  0.91  0.00  0.00  0.00  0.01  0.00
  YS02001610YS02001613    1.00   0.09  0.00  0.00  0.91  0.00  0.00  0.00  0.00  0.00
  YS02001613YS02001616    1.00   0.09  0.00  0.00  0.91  0.00  0.00  0.00  0.00  0.00
  YS02001616YS02001619    1.00   0.09  0.00  0.00  0.91  0.00  0.00  0.00  0.00  0.00
  YS02001619YS02001622    1.00   0.09  0.00  0.00  0.91  0.00  0.00  0.00  0.32  0.00
  YS02001622YS02001625    1.00   0.09  0.00  0.00  0.91  0.00  0.00  0.00  0.01  0.00
  YS02001625YS02001629    1.00   0.09  0.02  0.00  0.41  0.00  0.49  0.00  0.00  0.00
  YS02001629YS02163301    1.00   0.09  0.00  0.00  0.91  0.00  0.00  0.00  0.00  0.00
  YS02001633YS02163601    1.00   0.00  0.01  0.00  0.99  0.00  0.00  0.00  0.14  0.00
  YS02001641YS02001644    1.00   0.00  0.01  0.00  0.99  0.00  0.00  0.00  0.00  0.00
  YS02001644YS02001647    1.00   0.00  0.10  0.00  0.90  0.00  0.00  0.00  0.00  0.00
  YS02001647YS02001649    1.00   0.00  0.09  0.00  0.73  0.18  0.00  0.00  0.57  0.00
  YS02001649YS02001757    1.00   0.00  0.00  0.00  0.82  0.18  0.00  0.00  0.42  0.00
  YS02001652YS02001649    1.00   0.00  0.00  0.00  0.99  0.01  0.00  0.00  0.68  0.00
  YS02001655YS02001652    1.00   0.00  0.00  0.00  0.46  0.01  0.00  0.54  0.02  0.00
  YS02001658YS02001655    1.00   0.00  0.09  0.00  0.79  0.12  0.00  0.00  0.59  0.00
  YS02001661YS02001658    1.00   0.09  0.00  0.00  0.62  0.29  0.00  0.00  0.61  0.00
  YS02001664YS02001661    1.00   0.09  0.00  0.00  0.84  0.07  0.00  0.00  0.77  0.00
  YS02001745YS02001748    1.00   0.00  0.00  0.00  0.35  0.00  0.00  0.65  0.03  0.00
  YS02001748YS02001751    1.00   0.00  0.00  0.00  0.90  0.10  0.00  0.00  0.70  0.00
  YS02001751YS02001754    1.00   0.00  0.00  0.00  0.45  0.01  0.00  0.55  0.02  0.00
  YS02001754YS02001757    1.00   0.00  0.00  0.00  1.00  0.00  0.00  0.00  0.71  0.00
  YS02001757CaochengTiaoxuchi    1.00   0.00  0.00  0.00  0.97  0.03  0.00  0.00  0.69  0.00
  YS02001759YS02001757    1.00   0.00  0.00  0.00  0.99  0.01  0.00  0.00  0.60  0.00
  YS02001762YS02001759    1.00   0.00  0.00  0.00  1.00  0.00  0.00  0.00  0.01  0.00
  YS02001765YS02001762    1.00   0.00  0.00  0.00  1.00  0.00  0.00  0.00  0.66  0.00
  YS02001767YS02001765    1.00   0.00  0.00  0.00  1.00  0.00  0.00  0.00  0.00  0.00
  YS02001770YS02001767    1.00   0.00  0.00  0.00  1.00  0.00  0.00  0.00  0.00  0.00
  YS02001774YS02001770    1.00   0.00  0.09  0.00  0.76  0.00  0.15  0.00  0.01  0.00
  YS02001779YS02001774    1.00   0.00  0.00  0.00  1.00  0.00  0.00  0.00  0.69  0.00
  YS02001783YS02001784    1.00   0.00  0.10  0.00  0.90  0.00  0.00  0.00  0.55  0.00
  YS02001784YS02001785    1.00   0.00  0.00  0.00  1.00  0.00  0.00  0.00  0.14  0.00
  YS02001786YS02001788    1.00   0.00  0.00  0.00  0.70  0.30  0.00  0.00  0.00  0.00
  YS02001788YS02001790    1.00   0.00  0.00  0.00  0.19  0.81  0.00  0.00  0.76  0.00
  YS02001790YS02001791    1.00   0.00  0.00  0.00  0.01  0.99  0.00  0.00  0.14  0.00
  YS02001791YS02001793    1.00   0.00  0.00  0.00  0.00  1.00  0.00  0.00  0.02  0.00
  YS02001793JiankangQianchi    1.00   0.00  0.00  0.00  0.87  0.13  0.00  0.00  0.96  0.00
  YS02001882YS02001884    1.00   0.09  0.00  0.00  0.91  0.00  0.00  0.00  0.00  0.00
  YS02001884YS02001887    1.00   0.06  0.03  0.00  0.92  0.00  0.00  0.00  0.00  0.00
  YS02001887YS02001890    1.00   0.00  0.00  0.00  0.96  0.00  0.03  0.00  0.00  0.00
  YS02001890YS02001895    1.00   0.00  0.09  0.00  0.91  0.00  0.00  0.00  0.00  0.00
  YS02001895YS02001898    1.00   0.09  0.00  0.00  0.90  0.00  0.01  0.00  0.00  0.00
  YS02001898YS02001901    1.00   0.10  0.00  0.00  0.90  0.00  0.00  0.00  0.00  0.00
  YS02001901YS02001904    1.00   0.10  0.00  0.00  0.90  0.00  0.00  0.00  0.00  0.00
  YS02001904YS02001907    1.00   0.00  0.09  0.00  0.90  0.00  0.00  0.00  0.00  0.00
  YS02001907YS02006553    1.00   0.00  0.02  0.00  0.97  0.00  0.00  0.00  0.00  0.00
  YS02001910YS02001907    1.00   0.00  0.00  0.00  0.97  0.00  0.00  0.03  0.11  0.00
  YS02001915YS02001910    1.00   0.00  0.00  0.00  0.97  0.03  0.00  0.00  0.11  0.00
  YS02001918YS02001915    1.00   0.00  0.00  0.00  0.97  0.02  0.00  0.00  0.66  0.00
  YS02001920YS02001918    1.00   0.00  0.00  0.00  1.00  0.00  0.00  0.00  0.00  0.00
  YS02001923YS02001920    1.00   0.00  0.00  0.00  1.00  0.00  0.00  0.00  0.85  0.00
  YS02001926YS02001923    1.00   0.00  0.06  0.00  0.19  0.00  0.75  0.00  0.00  0.00
  YS02001929YS02001926    1.00   0.00  0.09  0.00  0.91  0.00  0.00  0.00  0.76  0.00
  YS02006553YS02006556    1.00   0.01  0.00  0.00  0.99  0.00  0.00  0.00  0.03  0.00
  YS02006556YS02006558    1.00   0.00  0.00  0.00  1.00  0.00  0.00  0.00  0.00  0.00
  YS02006558YS02006561    1.00   0.10  0.00  0.00  0.18  0.72  0.00  0.00  0.12  0.00
  YS02006561YS02001783    1.00   0.10  0.00  0.00  0.25  0.65  0.00  0.00  0.62  0.00
  YS02163301YS02001633    1.00   0.00  0.09  0.00  0.91  0.00  0.00  0.00  0.00  0.00
  YS02163601YS02164001    1.00   0.00  0.07  0.00  0.93  0.00  0.00  0.00  0.00  0.00
  YS02164001YS02001641    1.00   0.01  0.06  0.00  0.93  0.00  0.00  0.00  0.05  0.00
  YSB1154YSB6556          1.00   0.09  0.00  0.00  0.91  0.00  0.00  0.00  0.01  0.00
  YSB1171HS02004479       1.00   0.04  0.00  0.00  0.95  0.00  0.00  0.01  0.09  0.00
  YSB1174YSB1171          1.00   0.05  0.02  0.00  0.93  0.00  0.00  0.00  0.00  0.00
  YSB6556YSB1171          1.00   0.04  0.04  0.00  0.91  0.00  0.00  0.00  0.00  0.00
  
  
  *************************
  Conduit Surcharge Summary
  *************************
  
  ----------------------------------------------------------------------------
                                                           Hours        Hours 
                         --------- Hours Full --------   Above Full   Capacity
  Conduit                Both Ends  Upstream  Dnstream   Normal Flow   Limited
  ----------------------------------------------------------------------------
  HS02004478WS02006287        1.21      1.21      1.47      0.01         0.01
  HS02004479HS02004480        1.48      1.48      1.52      0.01         0.01
  HS02004480HS02004478        1.37      1.48      1.37      2.11         1.37
  HS02004770HS02004777        1.33      1.33      1.34      0.17         0.13
  HS02004777HS02004785        1.26      1.26      1.34      0.01         0.01
  HS02004785HS02004788        1.24      1.26      1.24      1.84         0.93
  HS02004788HS02004792        1.24      1.24      1.44      0.01         0.01
  HS02004792HS02004799        1.44      1.44      1.67      0.01         0.01
  HS02004799HS02004480        1.48      1.48      1.67      1.74         0.01
  HS02004802HS02004478        1.38      1.38      1.49      0.52         0.01
  HS02004807HS02004802        1.46      1.46      1.48      0.74         0.75
  HS02004817HS02004807        1.46      1.46      1.89      0.01         0.01
  HS02004817HS02004824        1.23      1.23      1.89      0.01         0.01
  HS02004824HS02004830        1.19      1.19      1.23      0.01         0.01
  HS02004830HS02004837        1.13      1.13      1.19      0.01         0.01
  HS02004837HS02004842        1.13      1.13      1.34      0.01         0.01
  HS02004842HS02004848        1.08      1.08      1.34      0.01         0.01
  HS02004848HS02004852        1.08      1.08      1.12      0.03         0.01
  HS02004852HS02004856        1.12      1.12      1.15      0.02         0.01
  HS02004856HS02004862        1.10      1.10      1.16      0.01         0.01
  HS02004862HS02004870        1.16      1.16      1.19      0.44         0.43
  HS02004870HS02004876        1.19      1.19      1.30      0.01         0.01
  HS02004876HS02004881        1.27      1.30      1.27      1.99         1.26
  HS02004881HS02006253        1.27      1.27      2.60      0.01         0.01
  HS02004901HS02004770        1.33      1.33      1.34      0.49         0.01
  WS02003072WS02003073        0.01      0.01      0.01      2.91         0.01
  WS02004401WS02004402        2.05      2.05      2.08      1.94         1.93
  WS02004402WS02004403        2.08      2.08      2.08      2.04         2.03
  WS02004403WS02004404        2.08      2.08      2.24      0.22         0.21
  WS02004404WS02004405        2.20      2.24      2.20      3.49         2.20
  WS02004405WS02004406        2.17      2.20      2.17      2.61         2.17
  WS02004406WS02004407        0.30      0.30      2.17      0.01         0.01
  WS02004407WS02004409        0.30      0.30      1.73      0.01         0.01
  WS02004409WS02004410        1.72      1.73      1.72      1.96         1.72
  WS02004410WS02004411        1.70      1.72      1.70      2.00         1.70
  WS02004411WS02004412        1.65      1.70      1.65      2.04         1.65
  WS02004412WS02004413        1.65      1.65      1.88      0.01         0.01
  WS02004413WS02003067        0.01      0.01      1.88      0.01         0.01
  WS02006109WS02006110        2.54      2.54      2.78      2.54         0.01
  WS02006110WS02006113        1.86      1.86      2.78      0.47         0.01
  WS02006111WS02006112        1.84      1.84      2.86      0.01         0.01
  WS02006112WS02006115        1.95      1.95      2.67      0.01         0.01
  WS02006113WS02006111        1.85      1.86      1.85      1.94         1.77
  WS02006115WS02006116        1.97      1.97      1.97      1.97         1.94
  WS02006116WS02004401        2.04      2.04      2.05      2.02         1.99
  WS02006228WS02006109        2.77      2.78      2.77      3.06         2.77
  WS02006229WS02006228        2.77      2.77      2.77      2.87         2.77
  WS02006230WS02006229        2.80      2.81      2.80      3.71         0.98
  WS02006231WS02006230        2.30      2.30      2.58      3.44         1.76
  WS02006232WS02006231        2.54      2.54      2.70      0.01         0.33
  WS02006234WS02006232        2.67      2.67      2.70      0.01         0.01
  WS02006235WS02006234        2.65      2.66      2.67      3.22         1.75
  WS02006238WS02006235        2.67      2.67      2.68      0.01         0.81
  WS02006239WS02006238        2.67      2.67      2.68      2.50         0.72
  WS02006240WS02006239        2.66      2.66      2.66      2.49         0.71
  WS02006242WS02006240        2.65      2.65      2.67      2.57         1.74
  WS02006243WS02006242        2.65      2.65      2.66      0.01         0.01
  WS02006245WS02006243        2.64      2.64      2.64      0.76         0.68
  WS02006247WS02006245        2.64      2.64      2.64      2.79         0.84
  WS02006248WS02006247        2.63      2.63      2.64      0.01         0.01
  WS02006249WS02006248        2.62      2.62      2.63      0.91         0.01
  WS02006251WS02006249        2.62      2.62      2.63      2.71         2.59
  WS02006252WS02006251        2.73      2.73      2.74      2.06         0.41
  WS02006253WS02006251        2.62      2.62      2.62      1.67         0.01
  WS02006256WS02006235        3.31      3.32      4.76      0.42         0.01
  WS02006280WS02006229        1.68      1.68      1.73      0.01         0.01
  WS02006284WS02006280        1.52      1.52      1.67      0.01         0.01
  WS02006287WS02006284        1.36      1.36      1.54      0.80         0.81
  YS02001580YS02001583        1.34      1.34      1.44      0.01         0.01
  YS02001583YS02001586        1.35      1.35      1.63      0.01         0.01
  YS02001586YS02001590        1.63      1.63      1.67      0.01         0.01
  YS02001590YS02001593        1.67      1.67      1.69      1.67         0.01
  YS02001593YS02001596        1.69      1.69      1.76      0.01         0.01
  YS02001596YS02001600        1.79      1.79      1.84      0.01         0.01
  YS02001600YS02001601        1.88      1.88      2.04      0.01         0.01
  YS02001601YS02001602        1.99      1.99      2.07      1.84         0.01
  YS02001602YS02001605        1.96      1.96      1.99      2.52         0.01
  YS02001605YS02001607        1.94      1.96      1.95      1.95         1.88
  YS02001607YS02001610        1.68      1.68      1.70      0.01         0.01
  YS02001610YS02001613        1.68      1.68      1.70      0.01         0.01
  YS02001613YS02001616        1.65      1.65      1.68      0.01         0.01
  YS02001616YS02001619        1.64      1.64      1.65      0.37         0.28
  YS02001619YS02001622        1.64      1.64      1.64      1.60         1.37
  YS02001622YS02001625        1.64      1.64      1.77      0.01         0.01
  YS02001625YS02001629        1.62      1.62      1.77      0.01         0.01
  YS02001629YS02163301        1.78      1.78      1.80      0.28         0.07
  YS02001633YS02163601        1.82      1.82      1.86      0.09         0.12
  YS02001641YS02001644        1.79      1.80      1.79      2.10         1.71
  YS02001644YS02001647        1.62      1.62      1.79      0.04         0.01
  YS02001647YS02001649        1.62      1.62      1.74      0.01         0.01
  YS02001649YS02001757        1.73      1.74      1.81      0.09         0.04
  YS02001652YS02001649        1.61      1.61      1.74      0.09         0.10
  YS02001655YS02001652        1.49      1.49      1.58      0.09         0.09
  YS02001658YS02001655        0.94      0.94      1.49      0.01         0.01
  YS02001661YS02001658        0.37      0.37      0.94      0.01         0.01
  YS02001664YS02001661        0.18      0.18      0.46      0.01         0.01
  YS02001745YS02001748        0.16      0.16      0.71      0.01         0.01
  YS02001748YS02001751        0.91      0.91      1.35      0.01         0.01
  YS02001751YS02001754        1.35      1.35      1.55      0.01         0.01
  YS02001754YS02001757        1.58      1.58      1.81      0.01         0.01
  YS02001757CaochengTiaoxuchi        1.78      1.81      2.21      0.65         0.58
  YS02001759YS02001757        1.74      1.74      1.81      0.09         0.11
  YS02001762YS02001759        1.71      1.71      1.74      0.01         0.02
  YS02001765YS02001762        1.68      1.68      1.71      0.01         0.01
  YS02001767YS02001765        1.65      1.65      1.68      0.01         0.02
  YS02001770YS02001767        1.65      1.65      1.65      1.06         0.92
  YS02001774YS02001770        1.63      1.63      1.70      0.01         0.01
  YS02001779YS02001774        1.54      1.54      1.70      0.01         0.01
  YS02001783YS02001784        1.08      1.11      1.08      1.32         1.08
  YS02001784YS02001785        0.92      1.08      0.92      1.71         0.92
  YS02001786YS02001788        0.01      0.92      0.01      1.55         0.01
  YS02001790YS02001791        0.01      0.01      0.01      1.06         0.01
  YS02001793JiankangQianchi        0.01      0.01      7.69      0.01         0.01
  YS02001882YS02001884        1.03      1.03      1.04      0.01         0.01
  YS02001884YS02001887        1.08      1.08      1.10      0.01         0.01
  YS02001887YS02001890        1.12      1.12      1.14      0.41         0.01
  YS02001890YS02001895        1.01      1.01      1.16      0.01         0.01
  YS02001895YS02001898        1.00      1.00      1.01      0.01         0.01
  YS02001898YS02001901        1.02      1.02      1.08      0.01         0.01
  YS02001901YS02001904        1.06      1.06      1.08      0.01         0.01
  YS02001904YS02001907        1.06      1.06      1.50      0.01         0.01
  YS02001907YS02006553        1.71      1.71      1.74      0.14         0.14
  YS02001910YS02001907        1.15      1.15      1.44      0.28         0.27
  YS02001915YS02001910        1.03      1.03      1.15      0.01         0.03
  YS02001918YS02001915        0.90      0.90      1.03      0.01         0.01
  YS02001920YS02001918        0.90      0.90      0.93      0.13         0.01
  YS02001923YS02001920        0.80      0.80      0.93      0.01         0.01
  YS02001926YS02001923        0.41      0.41      0.44      0.24         0.01
  YS02001929YS02001926        0.30      0.30      0.44      0.01         0.01
  YS02006553YS02006556        1.28      1.28      1.49      0.10         0.10
  YS02006556YS02006558        1.35      1.35      1.54      0.09         0.01
  YS02006558YS02006561        0.95      1.27      0.95      1.66         0.95
  YS02006561YS02001783        0.86      0.86      1.11      0.01         0.01
  YS02163301YS02001633        1.80      1.80      1.83      0.16         0.01
  YS02163601YS02164001        1.80      1.80      1.86      0.08         0.01
  YS02164001YS02001641        1.79      1.80      1.80      0.91         0.88
  YSB1154YSB6556              1.58      1.58      1.76      0.26         0.01
  YSB1171HS02004479           1.41      1.41      1.76      0.01         0.01
  YSB1174YSB1171              1.71      1.71      1.86      0.14         0.14
  YSB6556YSB1171              1.58      1.58      1.92      0.01         0.01
  
  
  ***************
  Pumping Summary
  ***************
  
  ---------------------------------------------------------------------------------------------------------
                                                  Min       Avg       Max     Total     Power    % Time Off
                        Percent   Number of      Flow      Flow      Flow    Volume     Usage    Pump Curve
  Pump                 Utilized   Start-Ups       LPS       LPS       LPS  10^6 ltr     Kw-hr    Low   High
  ---------------------------------------------------------------------------------------------------------
  CC-R1                   31.60           2      0.00    683.00    683.00     6.215    120.91    0.0   49.3
  CC-R2                   30.74           2      0.00    683.00    683.00     6.046    117.77    0.0   50.6
  CC-S1                   33.10           2      0.00    200.00    200.00     1.906     11.69    0.0   32.8
  CC-S2                   32.27           2      0.00    200.00    200.00     1.859     11.28    0.0   33.7
  JK-R1                   14.51           7      0.00   1000.00   1000.00     4.180     39.06    0.0    0.0
  JK-R2                    0.16           1      0.00   1000.00   1000.00     0.047      0.36    0.0    0.0
  JK-S                    25.60           3      0.00    300.00    300.00     2.212     35.90    0.0    0.0
  XR-1                    97.91           2      0.00     95.00     95.00     2.679      9.62    0.0    0.0
  XR-2                    93.94           2      0.00     95.00     95.00     2.570      8.78    0.0    0.0
  XR-3                     0.00           1      0.00     95.00     95.00     0.000      0.00    0.0    0.0
  XR-4                     0.00           1      0.00     95.00     95.00     0.000      0.00    0.0    0.0
  

  Analysis begun on:  Mon Jun 12 12:00:11 2023
  Analysis ended on:  Mon Jun 12 12:00:17 2023
  Total elapsed time: 00:00:06