
  OWA STORM WATER MANAGEMENT MODEL - VERSION v5.1.14 (OWA 2022-07-31)
  --------------------------------------------------------------

  WARNING 04: minimum elevation drop used for Conduit WS02004404WS02004405
  WARNING 03: negative offset ignored for Link YS02001904YS02001907
  
  *********************************************************
  NOTE: The summary statistics displayed in this report are
  based on results found at every computational time step,  
  not just on results from each reporting time step.
  *********************************************************
  
  ****************
  Analysis Options
  ****************
  Flow Units ............... LPS
  Process Models:
    Rainfall/Runoff ........ YES
    RDII ................... NO
    Snowmelt ............... NO
    Groundwater ............ NO
    Flow Routing ........... YES
    Ponding Allowed ........ NO
    Water Quality .......... NO
  Infiltration Method ...... HORTON
  Flow Routing Method ...... DYNWAVE
  Surcharge Method ......... EXTRAN
  Starting Date ............ 08/28/2015 08:00:00
  Ending Date .............. 08/28/2015 16:00:00
  Antecedent Dry Days ...... 8.0
  Report Time Step ......... 00:01:00
  Wet Time Step ............ 00:01:00
  Dry Time Step ............ 00:01:00
  Routing Time Step ........ 30.00 sec
  Variable Time Step ....... YES
  Maximum Trials ........... 8
  Number of Threads ........ 4
  Head Tolerance ........... 0.001500 m
  
  
  **************************        Volume         Depth
  Runoff Quantity Continuity     hectare-m            mm
  **************************     ---------       -------
  Initial LID Storage ......         0.072         1.184
  Total Precipitation ......         6.729       111.087
  Evaporation Loss .........         0.000         0.000
  Infiltration Loss ........         0.212         3.492
  Surface Runoff ...........         5.332        88.021
  Final Storage ............         1.259        20.786
  Continuity Error (%) .....        -0.025
  
  
  **************************        Volume        Volume
  Flow Routing Continuity        hectare-m      10^6 ltr
  **************************     ---------     ---------
  Dry Weather Inflow .......         0.630         6.296
  Wet Weather Inflow .......         5.332        53.317
  Groundwater Inflow .......         0.000         0.000
  RDII Inflow ..............         0.000         0.000
  External Inflow ..........         0.105         1.045
  External Outflow .........         3.337        33.366
  Flooding Loss ............         2.911        29.110
  Evaporation Loss .........         0.000         0.000
  Exfiltration Loss ........         0.000         0.000
  Initial Stored Volume ....         0.303         3.031
  Final Stored Volume ......         0.179         1.792
  Continuity Error (%) .....        -0.907
  
  
  *************************
  Highest Continuity Errors
  *************************
  Node JK-storage (-10.26%)
  Node YS02001884 (5.04%)
  Node YS02001583 (-4.04%)
  Node WS02006256 (2.37%)
  Node HS02004842 (1.74%)
  
  
  ***************************
  Time-Step Critical Elements
  ***************************
  Link WS02006280WS02006229 (33.47%)
  Link YS02001793JiankangQianchi (25.63%)
  Link WS02006238WS02006235 (11.62%)
  Link WS02006252WS02006251 (6.05%)
  Link WS02004404WS02004405 (4.74%)
  
  
  ********************************
  Highest Flow Instability Indexes
  ********************************
  Link WS02004404WS02004405 (39)
  Link WS02006252WS02006251 (38)
  Link WS02004403WS02004404 (33)
  Link WS02006229WS02006228 (33)
  Link WS02006238WS02006235 (28)
  
  
  *************************
  Routing Time Step Summary
  *************************
  Minimum Time Step           :     0.00 sec
  Average Time Step           :     2.31 sec
  Maximum Time Step           :     6.46 sec
  Percent in Steady State     :    -0.00
  Average Iterations per Step :     4.94
  Percent Not Converging      :    39.24
  
  
  ***************************
  Subcatchment Runoff Summary
  ***************************
  
  ------------------------------------------------------------------------------------------------------------------------------
                            Total      Total      Total      Total     Imperv       Perv      Total       Total     Peak  Runoff
                           Precip      Runon       Evap      Infil     Runoff     Runoff     Runoff      Runoff   Runoff   Coeff
  Subcatchment                 mm         mm         mm         mm         mm         mm         mm    10^6 ltr      LPS
  ------------------------------------------------------------------------------------------------------------------------------
  sub0                      76.87       0.00       0.00       1.01      70.25       4.37      74.62        0.06    45.53   0.971
  sub1                      76.87       0.00       0.00       1.54      60.21       6.04      66.25        0.44   288.24   0.862
  sub10                     76.87       0.00       0.00       0.98      56.42       4.02      60.44        0.67   451.28   0.786
  sub11                     76.87       0.00       0.00       0.89      52.44       3.75      56.18        0.65   465.64   0.731
  sub12                     76.87       0.00       0.00       1.57      53.31       6.54      59.85        0.52   392.13   0.779
  sub14                     76.87       0.00       0.00       0.97      49.66       4.03      53.69        0.51   360.11   0.698
  sub15                     76.87       0.00       0.00       4.44      44.65      15.04      59.69        1.03   656.81   0.776
  sub16                     76.87       0.00       0.00       4.71      43.55      17.13      60.67        0.64   442.90   0.789
  sub17                     76.87       0.00       0.00       5.04      48.06      17.98      66.05        0.57   385.77   0.859
  sub2                      76.87       0.00       0.00       7.05      44.01      19.28      63.30        0.59   320.93   0.823
  sub22                     76.87       0.00       0.00       7.90      41.68      24.12      65.79        4.16  2480.19   0.856
  sub23                     76.87       0.00       0.00       5.92      42.92      19.74      62.65        2.99  1920.95   0.815
  sub3                      76.87       0.00       0.00       7.58      43.59      18.52      62.12        1.40   692.27   0.808
  sub4                      76.87       0.00       0.00       1.69      59.32       5.80      65.12        1.36   730.84   0.847
  sub5                      76.87       0.00       0.00       0.87      58.25       3.59      61.84        0.70   465.24   0.804
  sub60                    139.36       0.00       0.00       1.45      93.74      11.46     107.87        1.42   960.35   0.774
  sub61                    139.36       0.00       0.00       2.23      93.65      17.14     112.93        2.07  1404.22   0.810
  sub62                    139.36       0.00       0.00       0.99      99.86       7.78     110.15        3.02  1951.45   0.790
  sub63                    139.36       0.00       0.00       4.09      80.21      28.99     111.34        2.53  1632.37   0.799
  sub64                    139.36       0.00       0.00       1.96      91.36      14.32     108.28        2.60  1615.76   0.777
  sub65                    139.36       0.00       0.00       1.80      98.62      13.09     113.80        3.13  1893.54   0.817
  sub66                    139.36       0.00       0.00       4.78      77.63      27.27     107.33        5.01  2565.48   0.770
  sub67                    139.36       0.00       0.00       0.98     102.35       8.01     112.64        2.10  1486.90   0.808
  sub68                    139.36       0.00       0.00       1.71      90.40      13.15     106.35        2.93  1933.52   0.763
  sub69                    139.36       0.00       0.00       1.59      93.80      14.97     111.21        4.12  2445.62   0.798
  sub7                      76.87       0.00       0.00       1.03      53.23       4.33      57.55        0.19   140.32   0.749
  sub70                    139.36       0.00       0.00       5.34      75.20      33.45     110.77        3.20  1483.22   0.795
  sub71                    139.36       0.00       0.00       0.91      90.73       7.06     101.13        2.64  1625.03   0.726
  sub72                    139.36       0.00       0.00       0.87      98.04       6.59     107.40        1.48   848.31   0.771
  sub8                      76.87       0.00       0.00       1.01      51.73       4.20      55.92        0.36   252.95   0.728
  sub9                      76.87       0.00       0.00       0.98      50.14       4.07      54.21        0.26   184.32   0.705
  

  ***********************
  LID Performance Summary
  ***********************

  --------------------------------------------------------------------------------------------------------------------
                                         Total      Evap     Infil   Surface    Drain    Initial     Final  Continuity
                                        Inflow      Loss      Loss   Outflow   Outflow   Storage   Storage       Error
  Subcatchment      LID Control             mm        mm        mm        mm        mm        mm        mm           %
  --------------------------------------------------------------------------------------------------------------------
  sub1              GreenRoof            76.87      0.00      0.00      0.00      0.00      7.05     84.02       -0.12
  sub10             GreenRoof            76.87      0.00      0.00      0.00      0.00      7.05     84.02       -0.12
  sub11             GreenRoof            76.87      0.00      0.00      0.00      0.00      7.05     84.02       -0.12
  sub12             GreenRoof            76.87      0.00      0.00      0.00      0.00      7.05     84.02       -0.12
  sub14             GreenRoof            76.87      0.00      0.00      0.00      0.00      7.05     84.02       -0.12
  sub15             GreenRoof            76.87      0.00      0.00      0.00      0.00      7.05     84.02       -0.12
  sub16             GreenRoof            76.87      0.00      0.00      0.00      0.00      7.05     84.02       -0.12
  sub17             GreenRoof            76.87      0.00      0.00      0.00      0.00      7.05     84.02       -0.12
  sub2              GreenRoof            76.87      0.00      0.00      0.00      0.00      7.05     84.02       -0.12
  sub22             GreenRoof            76.87      0.00      0.00      0.00      0.00      7.05     84.02       -0.12
  sub23             GreenRoof            76.87      0.00      0.00      0.00      0.00      7.05     84.02       -0.12
  sub3              GreenRoof            76.87      0.00      0.00      0.00      0.00      7.05     84.02       -0.12
  sub4              GreenRoof            76.87      0.00      0.00      0.00      0.00      7.05     84.02       -0.12
  sub5              GreenRoof            76.87      0.00      0.00      0.00      0.00      7.05     84.02       -0.12
  sub60             GreenRoof           139.36      0.00      0.00     11.73      0.00      7.05    134.68        0.00
  sub61             GreenRoof           139.36      0.00      0.00     11.73      0.00      7.05    134.68        0.00
  sub62             GreenRoof           139.36      0.00      0.00     11.73      0.00      7.05    134.68        0.00
  sub63             GreenRoof           139.36      0.00      0.00     11.73      0.00      7.05    134.68        0.00
  sub64             GreenRoof           139.36      0.00      0.00     11.73      0.00      7.05    134.68        0.00
  sub65             GreenRoof           139.36      0.00      0.00     11.73      0.00      7.05    134.68        0.00
  sub66             GreenRoof           139.36      0.00      0.00     11.73      0.00      7.05    134.68        0.00
  sub67             GreenRoof           139.36      0.00      0.00     11.73      0.00      7.05    134.68        0.00
  sub68             GreenRoof           139.36      0.00      0.00     11.73      0.00      7.05    134.68        0.00
  sub69             GreenRoof           139.36      0.00      0.00     11.73      0.00      7.05    134.68        0.00
  sub7              GreenRoof            76.87      0.00      0.00      0.00      0.00      7.05     84.02       -0.12
  sub70             GreenRoof           139.36      0.00      0.00     11.73      0.00      7.05    134.68        0.00
  sub71             GreenRoof           139.36      0.00      0.00     11.73      0.00      7.05    134.68        0.00
  sub72             GreenRoof           139.36      0.00      0.00     11.73      0.00      7.05    134.68        0.00
  sub8              GreenRoof            76.87      0.00      0.00      0.00      0.00      7.05     84.02       -0.12
  sub9              GreenRoof            76.87      0.00      0.00      0.00      0.00      7.05     84.02       -0.12
  
  ******************
  Node Depth Summary
  ******************
  
  ---------------------------------------------------------------------------------
                                 Average  Maximum  Maximum  Time of Max    Reported
                                   Depth    Depth      HGL   Occurrence   Max Depth
  Node                 Type       Meters   Meters   Meters  days hr:min      Meters
  ---------------------------------------------------------------------------------
  HS02004478           JUNCTION     0.31     1.59    10.82     0  02:17        1.59
  HS02004479           JUNCTION     0.39     1.70    10.90     0  02:05        1.67
  HS02004480           JUNCTION     0.36     1.67    10.91     0  02:05        1.64
  HS02004770           JUNCTION     0.35     1.42    11.25     0  02:02        1.42
  HS02004777           JUNCTION     0.37     1.48    11.28     0  02:02        1.45
  HS02004785           JUNCTION     0.27     1.44    11.35     0  02:02        1.36
  HS02004788           JUNCTION     0.23     1.42    11.32     0  02:02        1.36
  HS02004792           JUNCTION     0.31     1.60    11.12     0  02:02        1.60
  HS02004799           JUNCTION     0.43     1.76    10.97     0  02:05        1.76
  HS02004802           JUNCTION     0.41     1.81    10.94     0  02:17        1.81
  HS02004807           JUNCTION     0.38     1.92    11.09     0  02:05        1.92
  HS02004817           JUNCTION     0.68     2.44    11.29     0  02:05        2.40
  HS02004824           JUNCTION     0.26     2.01    11.41     0  02:05        2.01
  HS02004830           JUNCTION     0.25     2.03    11.50     0  02:05        1.99
  HS02004837           JUNCTION     0.22     2.04    11.62     0  02:05        1.92
  HS02004842           JUNCTION     0.50     2.22    11.49     0  02:05        2.22
  HS02004848           JUNCTION     0.20     2.07    11.67     0  02:05        1.92
  HS02004852           JUNCTION     0.20     2.12    11.63     0  02:05        1.98
  HS02004856           JUNCTION     0.26     2.07    11.50     0  02:05        2.02
  HS02004862           JUNCTION     0.22     2.00    11.38     0  02:05        2.00
  HS02004870           JUNCTION     0.21     2.10    11.39     0  02:04        2.01
  HS02004876           JUNCTION     0.27     2.26    11.29     0  02:04        2.10
  HS02004881           JUNCTION     0.20     1.84    10.87     0  02:13        1.84
  HS02004901           JUNCTION     0.35     1.42    11.24     0  02:01        1.42
  WS02001211           JUNCTION     0.65     0.82     5.66     0  02:16        0.82
  WS02001212           JUNCTION     0.39     0.58     5.65     0  02:16        0.58
  WS02001213           JUNCTION     0.61     0.88     5.64     0  02:16        0.88
  WS02003059           JUNCTION     0.68     0.95     5.63     0  02:16        0.95
  WS02003060           JUNCTION     0.41     0.69     5.63     0  02:14        0.69
  WS02003066           JUNCTION     0.25     0.46     6.02     0  02:13        0.46
  WS02003067           JUNCTION     0.57     0.89     6.21     0  02:12        0.89
  WS02003069           JUNCTION     0.46     0.79     5.37     0  02:15        0.79
  WS02003072           JUNCTION     0.51     0.82     5.19     0  02:15        0.82
  WS02003073           JUNCTION     0.31     0.52     4.59     0  02:16        0.52
  WS02004138           JUNCTION     0.13     0.14     7.39     0  00:32        0.14
  WS02004139           JUNCTION     0.58     0.75     5.66     0  02:16        0.75
  WS02004401           JUNCTION     0.87     1.96     7.96     0  02:13        1.95
  WS02004402           JUNCTION     0.88     1.90     7.86     0  02:13        1.89
  WS02004403           JUNCTION     0.87     1.82     7.75     0  02:13        1.81
  WS02004404           JUNCTION     0.93     1.83     7.68     0  02:13        1.82
  WS02004405           JUNCTION     0.91     1.77     7.62     0  02:13        1.77
  WS02004406           JUNCTION     0.89     1.65     7.48     0  02:13        1.64
  WS02004407           JUNCTION     0.31     0.99     7.31     0  02:13        0.99
  WS02004409           JUNCTION     0.61     1.43     7.20     0  02:13        1.41
  WS02004410           JUNCTION     0.61     1.33     7.05     0  02:13        1.32
  WS02004411           JUNCTION     0.60     1.23     6.91     0  02:14        1.22
  WS02004412           JUNCTION     0.59     1.12     6.76     0  02:13        1.12
  WS02004413           JUNCTION     0.72     1.15     6.62     0  02:14        1.15
  WS02006109           JUNCTION     1.15     2.64     9.26     0  02:02        2.64
  WS02006110           JUNCTION     1.06     2.43     9.01     0  02:13        2.43
  WS02006111           JUNCTION     0.55     1.84     8.55     0  02:12        1.84
  WS02006112           JUNCTION     1.11     2.50     8.38     0  02:13        2.50
  WS02006113           JUNCTION     0.62     1.89     8.78     0  02:12        1.89
  WS02006115           JUNCTION     0.81     2.08     8.21     0  02:13        2.07
  WS02006116           JUNCTION     0.87     2.06     8.10     0  02:12        2.05
  WS02006228           JUNCTION     1.24     3.03     9.68     0  02:14        3.02
  WS02006229           JUNCTION     1.26     3.22     9.92     0  02:11        3.21
  WS02006230           JUNCTION     1.17     2.65     9.39     0  01:58        2.65
  WS02006231           JUNCTION     0.88     2.24     9.36     0  01:41        2.24
  WS02006232           JUNCTION     0.96     2.18     9.22     0  01:41        2.18
  WS02006234           JUNCTION     0.85     1.96     9.12     0  01:36        1.96
  WS02006235           JUNCTION     0.85     2.00     9.16     0  01:36        2.00
  WS02006238           JUNCTION     0.88     2.15     9.29     0  01:36        2.15
  WS02006239           JUNCTION     0.81     2.03     9.24     0  01:36        2.03
  WS02006240           JUNCTION     0.76     2.10     9.39     0  02:56        2.10
  WS02006242           JUNCTION     0.79     1.55     8.82     0  01:35        1.55
  WS02006243           JUNCTION     0.68     1.48     8.90     0  01:35        1.48
  WS02006245           JUNCTION     0.66     1.56     9.04     0  01:35        1.56
  WS02006247           JUNCTION     0.66     1.47     8.97     0  01:35        1.47
  WS02006248           JUNCTION     0.60     1.10     8.69     0  01:35        1.10
  WS02006249           JUNCTION     0.62     1.09     8.69     0  01:35        1.09
  WS02006251           JUNCTION     0.79     2.17     9.84     0  02:04        2.15
  WS02006252           JUNCTION     0.55     1.50     9.74     0  00:00        1.50
  WS02006253           JUNCTION     0.90     3.12    10.76     0  02:13        3.12
  WS02006256           JUNCTION     1.11     2.35     9.28     0  00:00        2.35
  WS02006280           JUNCTION     0.40     1.75    10.02     0  02:05        1.74
  WS02006284           JUNCTION     0.64     1.95    10.35     0  02:14        1.95
  WS02006287           JUNCTION     0.38     1.74    10.69     0  02:14        1.74
  WSF200               JUNCTION     0.25     0.53     5.76     0  02:14        0.53
  YS02001580           JUNCTION     0.20     1.05     9.59     0  01:36        0.78
  YS02001583           JUNCTION     0.24     1.14     9.64     0  01:36        0.82
  YS02001586           JUNCTION     0.36     1.13     9.30     0  01:36        1.13
  YS02001590           JUNCTION     0.48     1.40     9.26     0  01:36        1.38
  YS02001593           JUNCTION     0.42     1.33     9.19     0  01:36        1.29
  YS02001596           JUNCTION     0.56     1.69     9.11     0  01:36        1.65
  YS02001600           JUNCTION     0.66     1.87     9.00     0  01:36        1.87
  YS02001601           JUNCTION     0.84     2.06     8.90     0  01:35        2.06
  YS02001602           JUNCTION     0.73     1.87     8.77     0  01:36        1.87
  YS02001605           JUNCTION     0.68     1.78     8.68     0  01:36        1.78
  YS02001607           JUNCTION     0.63     1.65     8.49     0  01:44        1.65
  YS02001610           JUNCTION     0.67     1.68     8.48     0  01:36        1.68
  YS02001613           JUNCTION     0.63     1.69     8.53     0  01:40        1.69
  YS02001616           JUNCTION     0.57     1.61     8.52     0  01:40        1.61
  YS02001619           JUNCTION     0.55     1.61     8.54     0  01:40        1.61
  YS02001622           JUNCTION     0.54     1.58     8.49     0  02:00        1.58
  YS02001625           JUNCTION     0.78     1.78     8.38     0  01:39        1.78
  YS02001629           JUNCTION     0.68     1.85     8.40     0  01:39        1.85
  YS02001633           JUNCTION     0.75     2.08     8.53     0  01:49        2.08
  YS02001641           JUNCTION     0.71     1.97     8.40     0  01:49        1.96
  YS02001644           JUNCTION     0.70     1.92     8.35     0  01:42        1.92
  YS02001647           JUNCTION     0.48     1.79     8.40     0  01:47        1.78
  YS02001649           JUNCTION     0.54     2.05     8.44     0  01:47        2.03
  YS02001652           JUNCTION     0.43     1.99     8.59     0  01:47        1.96
  YS02001655           JUNCTION     0.34     1.88     8.73     0  01:47        1.86
  YS02001658           JUNCTION     0.25     1.98     9.12     0  01:42        1.72
  YS02001661           JUNCTION     0.24     1.61     9.01     0  01:48        1.61
  YS02001664           JUNCTION     0.12     1.24     9.17     0  01:49        1.24
  YS02001745           JUNCTION     0.12     1.08     8.60     0  01:47        1.08
  YS02001748           JUNCTION     0.22     1.64     8.72     0  01:43        1.45
  YS02001751           JUNCTION     0.28     1.62     8.49     0  01:47        1.61
  YS02001754           JUNCTION     0.37     1.84     8.44     0  01:47        1.82
  YS02001757           JUNCTION     0.55     2.12     8.38     0  01:47        2.12
  YS02001759           JUNCTION     0.50     2.14     8.51     0  01:49        2.14
  YS02001762           JUNCTION     0.49     2.10     8.50     0  01:47        2.09
  YS02001765           JUNCTION     0.47     2.04     8.49     0  01:47        2.03
  YS02001767           JUNCTION     0.46     1.99     8.48     0  01:47        1.97
  YS02001770           JUNCTION     0.47     1.95     8.44     0  01:43        1.95
  YS02001774           JUNCTION     0.53     2.01     8.43     0  01:43        2.01
  YS02001779           JUNCTION     0.36     1.68     8.37     0  01:41        1.68
  YS02001783           JUNCTION     0.38     1.27     7.41     0  01:49        1.27
  YS02001784           JUNCTION     0.38     1.15     7.22     0  01:48        1.14
  YS02001786           JUNCTION     0.31     0.89     6.92     0  01:49        0.89
  YS02001788           JUNCTION     0.23     0.63     6.61     0  01:50        0.63
  YS02001790           JUNCTION     0.26     0.73     6.37     0  01:51        0.72
  YS02001791           JUNCTION     0.16     0.44     5.91     0  01:49        0.44
  YS02001793           JUNCTION     0.09     0.26     5.09     0  02:11        0.25
  YS02001882           JUNCTION     0.48     1.73     8.45     0  01:49        1.73
  YS02001884           JUNCTION     0.56     1.83     8.45     0  01:49        1.83
  YS02001887           JUNCTION     0.64     1.92     8.46     0  01:49        1.92
  YS02001890           JUNCTION     0.66     1.81     8.32     0  01:40        1.81
  YS02001895           JUNCTION     0.44     1.57     8.32     0  01:41        1.56
  YS02001898           JUNCTION     0.45     1.57     8.30     0  01:41        1.56
  YS02001901           JUNCTION     0.56     1.68     8.29     0  01:41        1.67
  YS02001904           JUNCTION     0.54     1.65     8.28     0  01:41        1.64
  YS02001907           JUNCTION     0.84     1.96     8.25     0  01:40        1.96
  YS02001910           JUNCTION     0.66     2.01     8.52     0  01:56        2.01
  YS02001915           JUNCTION     0.50     2.00     8.72     0  01:47        2.00
  YS02001918           JUNCTION     0.32     1.81     8.88     0  01:41        1.74
  YS02001920           JUNCTION     0.40     2.10     9.11     0  01:41        1.84
  YS02001923           JUNCTION     0.26     2.01     9.27     0  01:41        1.63
  YS02001926           JUNCTION     0.27     1.90     9.35     0  01:41        1.49
  YS02001929           JUNCTION     0.18     1.78     9.47     0  01:41        1.28
  YS02006553           JUNCTION     0.84     2.04     8.32     0  01:41        2.04
  YS02006556           JUNCTION     0.82     2.10     8.41     0  01:41        2.10
  YS02006558           JUNCTION     0.86     2.11     8.38     0  01:41        2.11
  YS02006561           JUNCTION     0.24     0.95     7.61     0  01:49        0.95
  YS02163301           JUNCTION     0.70     1.95     8.47     0  01:49        1.95
  YS02163601           JUNCTION     0.78     2.07     8.47     0  01:48        2.07
  YS02164001           JUNCTION     0.70     1.97     8.43     0  01:42        1.96
  YSB1154              JUNCTION     0.52     1.97    11.03     0  02:13        1.97
  YSB1171              JUNCTION     0.66     1.95    10.85     0  02:02        1.95
  YSB1174              JUNCTION     0.48     1.82    10.93     0  02:13        1.82
  YSB6556              JUNCTION     0.42     1.79    10.96     0  02:02        1.76
  CC-1                 OUTFALL      0.00     0.00     0.00     0  00:00        0.00
  CC-2                 OUTFALL      0.00     0.00     0.00     0  00:00        0.00
  JK-1                 OUTFALL      0.00     0.00     0.00     0  00:00        0.00
  JK-2                 OUTFALL      0.00     0.00     0.00     0  00:00        0.00
  WSC                  OUTFALL      0.31     0.52     1.19     0  02:16        0.52
  CC-storage           STORAGE      0.50     1.44     6.94     0  02:37        1.44
  JK-storage           STORAGE      0.05     2.99     3.79     0  00:00        0.68
  XR-storage           STORAGE      7.79     9.26     7.26     0  08:00        9.26
  
  
  *******************
  Node Inflow Summary
  *******************
  
  -------------------------------------------------------------------------------------------------
                                  Maximum  Maximum                  Lateral       Total        Flow
                                  Lateral    Total  Time of Max      Inflow      Inflow     Balance
                                   Inflow   Inflow   Occurrence      Volume      Volume       Error
  Node                 Type           LPS      LPS  days hr:min    10^6 ltr    10^6 ltr     Percent
  -------------------------------------------------------------------------------------------------
  HS02004478           JUNCTION      0.00  2303.94     0  02:11           0        8.92      -0.006
  HS02004479           JUNCTION      0.00   387.37     0  02:06           0       0.832       0.091
  HS02004480           JUNCTION      0.00  2067.60     0  02:04           0        6.66       0.034
  HS02004770           JUNCTION   1920.95  1920.95     0  02:13        2.99        3.21       0.094
  HS02004777           JUNCTION      0.03   718.33     0  02:02    0.000864        1.91       0.271
  HS02004785           JUNCTION      0.15   732.55     0  02:01     0.00432        1.91       0.024
  HS02004788           JUNCTION    658.48   881.69     0  02:02        1.07        2.98       0.008
  HS02004792           JUNCTION   2480.47  3331.25     0  02:13        4.16        7.14       0.008
  HS02004799           JUNCTION    360.11  1753.67     0  02:03       0.511        6.04       0.044
  HS02004802           JUNCTION      0.00  1232.89     0  02:17           0        2.42       0.163
  HS02004807           JUNCTION    465.64  1655.71     0  02:13       0.653        2.58       0.166
  HS02004817           JUNCTION      0.60  1196.84     0  02:15      0.0173        1.98       0.849
  HS02004824           JUNCTION    730.89  1298.68     0  02:14        1.36        2.17       0.023
  HS02004830           JUNCTION      0.15   584.86     0  02:03     0.00432           1       0.125
  HS02004837           JUNCTION    457.63   761.65     0  02:03        0.85        1.29       0.053
  HS02004842           JUNCTION      0.00   764.09     0  02:03           0       0.746       1.771
  HS02004848           JUNCTION    692.27  1023.98     0  02:05         1.4        1.93      -0.015
  HS02004852           JUNCTION      0.00   992.71     0  02:05           0        1.72      -0.016
  HS02004856           JUNCTION    184.32  1037.50     0  02:05       0.261        1.98       0.072
  HS02004862           JUNCTION    321.13  1123.50     0  02:05       0.596        2.58      -0.009
  HS02004870           JUNCTION    252.95  1238.13     0  02:12       0.357        2.93      -0.006
  HS02004876           JUNCTION    288.24  1513.32     0  02:14       0.441        3.37       0.024
  HS02004881           JUNCTION    140.32  1647.87     0  02:13       0.194        3.56       0.007
  HS02004901           JUNCTION    442.90   707.00     0  02:13       0.635        1.01       0.168
  WS02001211           JUNCTION      7.35   203.63     0  02:53       0.212        5.44       0.611
  WS02001212           JUNCTION      0.00   209.89     0  02:53           0        5.41       0.273
  WS02001213           JUNCTION      0.00   214.18     0  02:52           0        5.39       0.350
  WS02003059           JUNCTION      0.00   219.18     0  02:52           0        5.38       0.601
  WS02003060           JUNCTION     16.53  1533.72     0  02:15       0.476        14.8       0.105
  WS02003066           JUNCTION      0.00  1336.53     0  02:13           0        8.96       0.022
  WS02003067           JUNCTION      0.00  1335.89     0  02:13           0        8.96       0.055
  WS02003069           JUNCTION      0.32  1533.79     0  02:15     0.00922        14.8       0.110
  WS02003072           JUNCTION      0.00  1533.88     0  02:15           0        14.7       0.147
  WS02003073           JUNCTION      1.82  1535.94     0  02:16      0.0524        14.8       0.151
  WS02004138           JUNCTION      0.00   380.00     0  00:00           0        5.25       0.053
  WS02004139           JUNCTION      0.32   190.32     0  00:32     0.00924        5.26       0.508
  WS02004401           JUNCTION      0.00  1337.47     0  02:13           0        9.09       0.138
  WS02004402           JUNCTION      0.00  1337.31     0  02:13           0        9.08       0.137
  WS02004403           JUNCTION      0.00  1337.58     0  02:13           0        9.06       0.133
  WS02004404           JUNCTION      0.16  1337.66     0  02:13     0.00467        9.06       0.106
  WS02004405           JUNCTION      0.04  1338.63     0  02:13      0.0011        9.05       0.157
  WS02004406           JUNCTION      0.00  1338.11     0  02:13           0        9.03       0.264
  WS02004407           JUNCTION      0.00  1337.93     0  02:13           0        9.01       0.027
  WS02004409           JUNCTION      0.00  1336.03     0  02:14           0        9.01       0.056
  WS02004410           JUNCTION      0.00  1335.92     0  02:13           0           9       0.077
  WS02004411           JUNCTION      0.00  1335.87     0  02:14           0           9       0.087
  WS02004412           JUNCTION      0.00  1335.88     0  02:14           0        8.99       0.107
  WS02004413           JUNCTION      0.00  1335.84     0  02:13           0        8.98       0.186
  WS02006109           JUNCTION      1.23  1288.95     0  02:11      0.0354        8.89       0.139
  WS02006110           JUNCTION      0.00  1122.02     0  02:30           0        8.57       0.111
  WS02006111           JUNCTION      0.00  1121.74     0  02:30           0        8.56       0.021
  WS02006112           JUNCTION    385.77  1336.96     0  02:13       0.567        9.12       0.248
  WS02006113           JUNCTION      0.00  1122.02     0  02:30           0        8.56       0.038
  WS02006115           JUNCTION      0.00  1337.08     0  02:13           0         9.1       0.107
  WS02006116           JUNCTION      0.00  1337.10     0  02:13           0        9.09       0.033
  WS02006228           JUNCTION      0.00  1287.89     0  02:11           0        8.86       0.066
  WS02006229           JUNCTION      0.00  2304.79     0  02:11           0        11.3       0.081
  WS02006230           JUNCTION     10.28  1026.29     0  02:11       0.296        4.93       0.204
  WS02006231           JUNCTION      0.00   464.54     0  03:45           0        3.64      -0.069
  WS02006232           JUNCTION      0.00   461.99     0  03:45           0        3.65       0.249
  WS02006234           JUNCTION      0.00   463.78     0  03:45           0        3.65      -0.171
  WS02006235           JUNCTION      0.00   521.00     0  01:30           0        3.58       0.279
  WS02006238           JUNCTION      0.00   428.17     0  03:43           0        3.43      -0.173
  WS02006239           JUNCTION      0.00   424.33     0  03:43           0        3.38      -0.164
  WS02006240           JUNCTION      0.00   423.75     0  03:43           0        3.36      -0.076
  WS02006242           JUNCTION      0.00   424.44     0  03:43           0        3.37      -0.027
  WS02006243           JUNCTION      0.00   428.53     0  01:30           0        2.99      -0.041
  WS02006245           JUNCTION      0.00   439.61     0  01:30           0        3.01       0.427
  WS02006247           JUNCTION      0.00   448.10     0  01:30           0        3.01       0.044
  WS02006248           JUNCTION      0.00   502.15     0  01:35           0        3.28       0.036
  WS02006249           JUNCTION      0.00  1375.91     0  02:13           0        6.89       0.120
  WS02006251           JUNCTION      0.08  1694.17     0  02:13     0.00222        7.08      -0.027
  WS02006252           JUNCTION      0.00   719.31     0  02:13           0        4.06      -0.027
  WS02006253           JUNCTION     45.53  1693.41     0  02:13      0.0604        3.66       0.034
  WS02006256           JUNCTION      0.00   315.31     0  01:28           0       0.811       2.423
  WS02006280           JUNCTION      0.00  2303.81     0  02:11           0         8.9       0.001
  WS02006284           JUNCTION      0.10  2303.58     0  02:11     0.00275         8.9       0.006
  WS02006287           JUNCTION      0.00  2304.01     0  02:11           0         8.9       0.008
  WSF200               JUNCTION      0.00  1336.70     0  02:13           0        8.96       0.011
  YS02001580           JUNCTION      0.00    86.95     0  01:36           0     0.00412       0.358
  YS02001583           JUNCTION      0.00   146.32     0  01:35           0      0.0153      -3.888
  YS02001586           JUNCTION   1483.22  1483.31     0  01:52         3.2        3.21       0.037
  YS02001590           JUNCTION      0.00   318.40     0  01:41           0        1.77      -0.025
  YS02001593           JUNCTION      0.00   318.49     0  01:41           0        1.78       0.009
  YS02001596           JUNCTION      0.00   317.88     0  02:25           0        1.78       0.000
  YS02001600           JUNCTION      0.00   317.95     0  02:13           0        1.78       0.017
  YS02001601           JUNCTION   2445.62  2763.05     0  01:50        4.12        5.89       0.017
  YS02001602           JUNCTION      0.00   507.09     0  01:35           0        2.81       0.017
  YS02001605           JUNCTION      0.00   507.30     0  01:35           0        2.64       0.020
  YS02001607           JUNCTION      0.00   507.49     0  01:35           0        2.64       0.070
  YS02001610           JUNCTION      0.00   955.15     0  01:59           0        3.46       0.071
  YS02001613           JUNCTION      0.00   618.82     0  01:59           0        2.67       0.048
  YS02001616           JUNCTION      0.00   619.01     0  01:59           0        2.67       0.016
  YS02001619           JUNCTION   2565.48  2565.48     0  01:51           5        6.85      -0.000
  YS02001622           JUNCTION      0.00  1053.72     0  02:01           0        5.53      -0.000
  YS02001625           JUNCTION      0.00  1505.30     0  01:59           0        6.03       0.156
  YS02001629           JUNCTION      0.00  1047.04     0  01:50           0        4.63       0.019
  YS02001633           JUNCTION   1893.74  1893.74     0  01:50        3.14        6.92       0.049
  YS02001641           JUNCTION      0.00  1392.78     0  01:39           0        6.08       0.046
  YS02001644           JUNCTION   1615.80  2974.73     0  01:50         2.6        8.78       0.038
  YS02001647           JUNCTION      0.00  1788.70     0  01:39           0        7.09       0.007
  YS02001649           JUNCTION      0.00  2070.35     0  01:39           0        9.51       0.005
  YS02001652           JUNCTION      0.00  1634.52     0  01:50           0        2.53      -0.066
  YS02001655           JUNCTION      0.15  1633.70     0  01:50     0.00443        2.53      -0.006
  YS02001658           JUNCTION      0.00  1632.78     0  01:50           0        2.53      -0.010
  YS02001661           JUNCTION      0.00  1632.69     0  01:50           0        2.53       0.014
  YS02001664           JUNCTION   1632.37  1632.37     0  01:50        2.53        2.53      -0.006
  YS02001745           JUNCTION    960.35   960.35     0  01:49        1.42        1.42       0.082
  YS02001748           JUNCTION      0.04   971.05     0  01:49      0.0013        1.42      -0.113
  YS02001751           JUNCTION      0.01   971.81     0  01:49    0.000317        1.42       0.057
  YS02001754           JUNCTION      0.26   972.32     0  01:49     0.00749        1.43      -0.067
  YS02001757           JUNCTION      0.00  3613.34     0  01:49           0          15       0.031
  YS02001759           JUNCTION   1404.26  1540.30     0  01:49        2.07        4.16      -0.006
  YS02001762           JUNCTION      0.00   810.01     0  02:02           0        2.08       0.002
  YS02001765           JUNCTION      0.00   809.62     0  02:02           0        2.08       0.010
  YS02001767           JUNCTION      0.54   809.95     0  02:02      0.0154        2.08       0.003
  YS02001770           JUNCTION   1951.60  1951.60     0  01:50        3.02        3.07      -0.006
  YS02001774           JUNCTION      0.00   851.79     0  01:52           0       0.751       0.161
  YS02001779           JUNCTION      0.01   851.50     0  01:54    0.000144       0.706      -0.035
  YS02001783           JUNCTION      0.00  1188.84     0  01:49           0        5.32       0.006
  YS02001784           JUNCTION      1.06  1189.33     0  01:49      0.0305        5.35       0.009
  YS02001786           JUNCTION      0.06  1190.26     0  01:49     0.00162        5.35       0.013
  YS02001788           JUNCTION      0.07  1190.70     0  01:49     0.00204        5.35       0.005
  YS02001790           JUNCTION      0.15  1196.59     0  01:50     0.00446        5.36      -0.003
  YS02001791           JUNCTION      0.00  1303.16     0  01:51           0        5.36      -0.003
  YS02001793           JUNCTION      0.00  1265.86     0  01:50           0        5.36      -0.049
  YS02001882           JUNCTION      0.00    31.32     0  01:37           0      0.0136       4.999
  YS02001884           JUNCTION      0.00    74.08     0  01:38           0      0.0496       5.308
  YS02001887           JUNCTION   1487.35  1488.45     0  01:49        2.11        2.14       0.208
  YS02001890           JUNCTION      0.00  1488.73     0  01:49           0         2.1       0.246
  YS02001895           JUNCTION      0.00   517.87     0  01:58           0         1.6       0.110
  YS02001898           JUNCTION      0.00   517.69     0  02:00           0        1.59       0.013
  YS02001901           JUNCTION      0.00   517.96     0  01:58           0         1.6       0.213
  YS02001904           JUNCTION      0.00   517.79     0  02:02           0         1.6       0.175
  YS02001907           JUNCTION      0.00  3263.37     0  01:50           0        5.95       0.304
  YS02001910           JUNCTION      0.00  1992.97     0  01:52           0        4.08       0.178
  YS02001915           JUNCTION   1625.05  2473.35     0  01:50        2.64        4.24       0.037
  YS02001918           JUNCTION      0.00   851.45     0  01:51           0        1.61       0.008
  YS02001920           JUNCTION      2.87   851.50     0  01:51      0.0827         1.6       0.062
  YS02001923           JUNCTION      0.04   848.47     0  01:50     0.00109         1.5      -0.034
  YS02001926           JUNCTION      0.05   848.64     0  01:51      0.0015        1.49       0.033
  YS02001929           JUNCTION    848.31   848.31     0  01:51        1.48        1.48      -0.046
  YS02006553           JUNCTION      0.00   787.81     0  02:16           0        2.97       0.399
  YS02006556           JUNCTION      0.00   787.29     0  02:16           0        2.98       0.274
  YS02006558           JUNCTION   1934.40  1934.40     0  01:50        2.95        5.63       0.061
  YS02006561           JUNCTION      0.00  1189.05     0  01:49           0        5.32      -0.003
  YS02163301           JUNCTION      0.00  1046.30     0  01:50           0        4.63       0.035
  YS02163601           JUNCTION      0.11  1395.33     0  01:39     0.00317        6.07       0.083
  YS02164001           JUNCTION      0.00  1394.37     0  01:39           0        6.07       0.041
  YSB1154              JUNCTION    465.24   465.24     0  02:13       0.701       0.701       0.206
  YSB1171              JUNCTION      0.00  1087.64     0  02:13           0        1.35       0.469
  YSB1174              JUNCTION    392.13   392.13     0  02:13       0.523       0.524       0.237
  YSB6556              JUNCTION      0.00   465.50     0  02:13           0       0.702       0.167
  CC-1                 OUTFALL       0.00   683.00     0  00:00           0        6.67       0.000
  CC-2                 OUTFALL       0.00   683.00     0  00:00           0        6.67       0.000
  JK-1                 OUTFALL       0.00  1000.00     0  00:00           0        2.64       0.000
  JK-2                 OUTFALL       0.00  1000.00     0  00:00           0        2.64       0.000
  WSC                  OUTFALL       0.00  1536.64     0  02:16           0        14.8       0.000
  CC-storage           STORAGE       0.00  3614.60     0  01:49           0        17.2      -0.312
  JK-storage           STORAGE       0.00  1335.55     0  01:55           0        5.51      -9.302
  XR-storage           STORAGE     200.00   200.00     0  00:00        5.76        6.36       0.001
  
  
  **********************
  Node Surcharge Summary
  **********************
  
  Surcharging occurs when water rises above the top of the highest conduit.
  ---------------------------------------------------------------------
                                               Max. Height   Min. Depth
                                   Hours       Above Crown    Below Rim
  Node                 Type      Surcharged         Meters       Meters
  ---------------------------------------------------------------------
  HS02004478           JUNCTION        0.52          0.669        0.271
  HS02004479           JUNCTION        0.66          0.897        0.153
  HS02004480           JUNCTION        0.70          0.960        0.140
  HS02004770           JUNCTION        0.60          0.720        0.000
  HS02004777           JUNCTION        0.61          0.780        0.000
  HS02004785           JUNCTION        0.56          0.745        0.045
  HS02004788           JUNCTION        0.55          0.720        0.000
  HS02004792           JUNCTION        0.67          0.900        0.000
  HS02004799           JUNCTION        0.80          1.060        0.000
  HS02004802           JUNCTION        0.71          1.097        0.113
  HS02004807           JUNCTION        0.68          1.220        0.000
  HS02004817           JUNCTION        1.29          1.738        0.002
  HS02004824           JUNCTION        0.55          1.310        0.000
  HS02004830           JUNCTION        0.52          1.330        0.000
  HS02004837           JUNCTION        0.48          1.340        0.000
  HS02004842           JUNCTION        0.61          1.520        0.000
  HS02004848           JUNCTION        0.44          1.370        0.000
  HS02004852           JUNCTION        0.46          1.420        0.000
  HS02004856           JUNCTION        0.45          1.300        0.000
  HS02004862           JUNCTION        0.49          1.300        0.000
  HS02004870           JUNCTION        0.51          1.400        0.000
  HS02004876           JUNCTION        0.58          1.560        0.000
  HS02004881           JUNCTION        0.56          1.145        0.305
  HS02004901           JUNCTION        0.61          0.720        0.000
  WS02004401           JUNCTION        1.65          0.964        0.696
  WS02004402           JUNCTION        1.68          0.898        0.842
  WS02004403           JUNCTION        1.69          0.818        1.212
  WS02004404           JUNCTION        1.86          0.826        1.954
  WS02004405           JUNCTION        1.82          0.772        2.028
  WS02004406           JUNCTION        1.78          0.652        1.798
  WS02004409           JUNCTION        1.07          0.426        1.934
  WS02004410           JUNCTION        1.00          0.329        2.211
  WS02004411           JUNCTION        0.91          0.229        2.301
  WS02004412           JUNCTION        0.82          0.121        2.189
  WS02004413           JUNCTION        1.40          0.154        2.046
  WS02006109           JUNCTION        2.41          1.820        0.000
  WS02006110           JUNCTION        2.16          1.516        0.334
  WS02006111           JUNCTION        1.34          1.029        0.841
  WS02006112           JUNCTION        2.27          1.499        0.181
  WS02006113           JUNCTION        1.37          1.091        0.839
  WS02006115           JUNCTION        1.56          1.065        1.185
  WS02006116           JUNCTION        1.58          1.003        1.287
  WS02006228           JUNCTION        2.39          2.199        0.001
  WS02006229           JUNCTION        0.94          1.044        0.026
  WS02006230           JUNCTION        1.95          1.570        0.000
  WS02006231           JUNCTION        2.20          1.530        0.000
  WS02006232           JUNCTION        2.48          1.480        0.000
  WS02006234           JUNCTION        2.25          1.240        0.000
  WS02006235           JUNCTION        2.36          1.290        0.000
  WS02006238           JUNCTION        2.42          1.430        0.000
  WS02006239           JUNCTION        2.35          1.290        0.000
  WS02006240           JUNCTION        2.35          1.390        0.000
  WS02006242           JUNCTION        2.48          0.820        0.000
  WS02006243           JUNCTION        2.35          0.770        0.000
  WS02006245           JUNCTION        2.34          0.850        0.000
  WS02006247           JUNCTION        2.37          0.760        0.000
  WS02006248           JUNCTION        2.31          0.380        0.000
  WS02006249           JUNCTION        2.35          0.390        0.000
  WS02006251           JUNCTION        2.18          1.139        0.041
  WS02006252           JUNCTION        2.71          1.100        0.000
  WS02006253           JUNCTION        2.19          2.079        0.401
  WS02006256           JUNCTION        6.27          2.050        0.000
  WS02006280           JUNCTION        0.81          0.695        0.085
  WS02006284           JUNCTION        0.73          0.671        0.129
  WS02006287           JUNCTION        0.62          0.737        0.153
  YS02001580           JUNCTION        1.04          0.450        0.000
  YS02001583           JUNCTION        1.05          0.500        0.000
  YS02001586           JUNCTION        1.16          0.510        0.000
  YS02001590           JUNCTION        1.26          0.750        0.000
  YS02001593           JUNCTION        1.26          0.708        0.132
  YS02001596           JUNCTION        1.40          0.956        0.114
  YS02001600           JUNCTION        1.58          1.190        0.000
  YS02001601           JUNCTION        1.81          1.440        0.000
  YS02001602           JUNCTION        1.74          1.270        0.000
  YS02001605           JUNCTION        1.70          1.180        0.000
  YS02001607           JUNCTION        1.20          0.646        0.034
  YS02001610           JUNCTION        1.24          0.680        0.000
  YS02001613           JUNCTION        1.19          0.690        0.010
  YS02001616           JUNCTION        1.14          0.610        0.000
  YS02001619           JUNCTION        1.12          0.610        0.000
  YS02001622           JUNCTION        1.11          0.585        0.035
  YS02001625           JUNCTION        1.34          0.780        0.000
  YS02001629           JUNCTION        1.02          0.470        0.000
  YS02001633           JUNCTION        1.36          1.060        0.000
  YS02001641           JUNCTION        1.26          0.966        0.134
  YS02001644           JUNCTION        1.21          0.920        0.000
  YS02001647           JUNCTION        0.90          0.793        0.107
  YS02001649           JUNCTION        1.05          1.050        0.000
  YS02001652           JUNCTION        0.76          0.960        0.170
  YS02001655           JUNCTION        0.53          0.883        0.317
  YS02001658           JUNCTION        0.38          0.982        0.318
  YS02001661           JUNCTION        0.21          0.539        0.851
  YS02001664           JUNCTION        0.06          0.242        1.068
  YS02001745           JUNCTION        0.03          0.082        1.268
  YS02001748           JUNCTION        0.28          0.563        0.627
  YS02001751           JUNCTION        0.42          0.615        0.585
  YS02001754           JUNCTION        0.57          0.785        0.365
  YS02001757           JUNCTION        1.11          1.124        0.086
  YS02001759           JUNCTION        0.98          1.143        0.067
  YS02001762           JUNCTION        0.93          1.095        0.055
  YS02001765           JUNCTION        0.86          1.038        0.062
  YS02001767           JUNCTION        0.81          0.987        0.043
  YS02001770           JUNCTION        0.78          0.920        0.000
  YS02001774           JUNCTION        0.91          1.006        0.044
  YS02001779           JUNCTION        0.58          0.680        0.000
  YS02001783           JUNCTION        0.82          0.473        1.127
  YS02001784           JUNCTION        0.79          0.350        1.140
  YS02001786           JUNCTION        0.66          0.091        1.339
  YS02001882           JUNCTION        0.75          0.735        0.095
  YS02001884           JUNCTION        0.76          0.774        0.096
  YS02001887           JUNCTION        0.81          0.871        0.079
  YS02001890           JUNCTION        0.83          0.760        0.000
  YS02001895           JUNCTION        0.74          0.568        0.182
  YS02001898           JUNCTION        0.73          0.540        0.200
  YS02001901           JUNCTION        0.79          0.684        0.186
  YS02001904           JUNCTION        0.78          0.645        0.205
  YS02001907           JUNCTION        1.09          0.950        0.000
  YS02001910           JUNCTION        0.86          1.014        0.086
  YS02001915           JUNCTION        0.75          1.000        0.000
  YS02001918           JUNCTION        0.64          0.810        0.000
  YS02001920           JUNCTION        0.66          1.097        0.043
  YS02001923           JUNCTION        0.30          0.795        0.025
  YS02001926           JUNCTION        0.32          0.900        0.000
  YS02001929           JUNCTION        0.19          0.780        0.000
  YS02006553           JUNCTION        1.13          1.036        0.154
  YS02006556           JUNCTION        0.98          1.055        0.295
  YS02006558           JUNCTION        0.97          1.010        0.390
  YS02006561           JUNCTION        0.60          0.150        1.000
  YS02163301           JUNCTION        1.34          0.952        0.078
  YS02163601           JUNCTION        1.40          1.068        0.012
  YS02164001           JUNCTION        1.27          0.971        0.129
  YSB1154              JUNCTION        0.92          1.268        0.132
  YSB1171              JUNCTION        0.93          1.100        0.000
  YSB1174              JUNCTION        0.84          1.117        0.133
  YSB6556              JUNCTION        0.77          1.087        0.013
  
  
  *********************
  Node Flooding Summary
  *********************
  
  Flooding refers to all water that overflows a node, whether it ponds or not.
  --------------------------------------------------------------------------
                                                             Total   Maximum
                                 Maximum   Time of Max       Flood    Ponded
                        Hours       Rate    Occurrence      Volume     Depth
  Node                 Flooded       LPS   days hr:min    10^6 ltr    Meters
  --------------------------------------------------------------------------
  HS02004770              0.42   1458.30      0  02:13       0.934     0.000
  HS02004777              0.01     15.89      0  02:02       0.000     0.000
  HS02004788              0.01    274.52      0  02:02       0.001     0.000
  HS02004792              0.41   2189.08      0  02:13       1.613     0.000
  HS02004799              0.19    202.03      0  02:13       0.081     0.000
  HS02004807              0.12    425.26      0  02:13       0.124     0.000
  HS02004824              0.07    102.61      0  02:14       0.016     0.000
  HS02004830              0.01     28.97      0  02:05       0.000     0.000
  HS02004837              0.01     97.52      0  02:05       0.000     0.000
  HS02004842              0.06    163.05      0  02:05       0.009     0.000
  HS02004848              0.01    340.01      0  02:05       0.001     0.000
  HS02004852              0.01    251.87      0  02:05       0.000     0.000
  HS02004856              0.01    173.25      0  02:05       0.000     0.000
  HS02004862              0.05    279.26      0  02:05       0.006     0.000
  HS02004870              0.01    317.93      0  02:04       0.000     0.000
  HS02004876              0.01     68.02      0  02:04       0.000     0.000
  HS02004901              0.49    706.92      0  02:13       0.780     0.000
  WS02006109              0.46    337.12      0  02:13       0.302     0.000
  WS02006230              0.74    573.47      0  02:11       1.027     0.000
  WS02006231              0.01      1.52      0  02:56       0.000     0.000
  WS02006232              0.23      3.18      0  02:56       0.000     0.000
  WS02006234              0.84     85.66      0  02:03       0.164     0.000
  WS02006235              0.03     48.60      0  01:36       0.002     0.000
  WS02006238              0.01     18.59      0  01:36       0.000     0.000
  WS02006239              0.01     11.92      0  01:36       0.000     0.000
  WS02006240              0.01      3.82      0  02:56       0.000     0.000
  WS02006242              1.10    130.25      0  02:07       0.383     0.000
  WS02006243              0.01    123.40      0  01:35       0.000     0.000
  WS02006245              0.01     28.22      0  01:35       0.000     0.000
  WS02006247              0.01     44.44      0  01:35       0.000     0.000
  WS02006248              1.42    339.48      0  01:59       1.235     0.000
  WS02006249              2.05   1314.94      0  02:13       4.571     0.000
  WS02006252              0.51    718.88      0  02:13       0.640     0.000
  WS02006256              0.75    307.64      0  01:28       0.600     0.000
  YS02001580              0.01     67.98      0  01:36       0.000     0.000
  YS02001583              0.01     80.22      0  01:36       0.000     0.000
  YS02001586              0.86   1165.73      0  01:52       1.424     0.000
  YS02001590              0.01      4.10      0  01:36       0.000     0.000
  YS02001600              0.01      1.02      0  01:36       0.000     0.000
  YS02001601              1.06   2365.10      0  01:50       3.075     0.000
  YS02001602              0.85     62.00      0  02:07       0.176     0.000
  YS02001605              0.01      2.61      0  01:36       0.000     0.000
  YS02001610              0.77    954.93      0  01:59       1.604     0.000
  YS02001616              0.17      0.99      0  01:57       0.000     0.000
  YS02001619              0.26    904.45      0  01:51       0.500     0.000
  YS02001625              0.69   1505.16      0  02:00       2.238     0.000
  YS02001629              0.32    610.87      0  01:50       0.349     0.000
  YS02001633              0.01      0.71      0  01:49       0.000     0.000
  YS02001644              0.35   2974.71      0  01:50       1.795     0.000
  YS02001649              0.01     34.29      0  01:47       0.000     0.000
  YS02001770              0.16    984.92      0  01:50       0.267     0.000
  YS02001779              0.33    851.34      0  01:54       0.685     0.000
  YS02001890              0.36    972.89      0  01:49       0.500     0.000
  YS02001907              0.57   3262.83      0  01:50       3.250     0.000
  YS02001915              0.14    480.66      0  01:50       0.122     0.000
  YS02001918              0.01     67.91      0  01:41       0.001     0.000
  YS02001926              0.01     24.31      0  01:41       0.000     0.000
  YS02001929              0.01    305.65      0  01:41       0.001     0.000
  YSB1171                 0.30   1087.59      0  02:13       0.640     0.000
  
  
  **********************
  Storage Volume Summary
  **********************
  
  --------------------------------------------------------------------------------------------------
                         Average     Avg  Evap Exfil       Maximum     Max    Time of Max    Maximum
                          Volume    Pcnt  Pcnt  Pcnt        Volume    Pcnt     Occurrence    Outflow
  Storage Unit           1000 m3    Full  Loss  Loss       1000 m3    Full    days hr:min        LPS
  --------------------------------------------------------------------------------------------------
  CC-storage               1.406      22     0     0         4.012      63       0  02:37    1783.53
  JK-storage               0.003       1     0     0         0.150      52       0  00:00    2300.00
  XR-storage               0.934      65     0     0         1.111      77       0  08:00     380.00
  
  
  ***********************
  Outfall Loading Summary
  ***********************
  
  -----------------------------------------------------------
                         Flow       Avg       Max       Total
                         Freq      Flow      Flow      Volume
  Outfall Node           Pcnt       LPS       LPS    10^6 ltr
  -----------------------------------------------------------
  CC-1                  56.06    683.00    683.00       6.667
  CC-2                  56.06    683.00    683.00       6.667
  JK-1                  16.58    992.47   1000.00       2.637
  JK-2                  16.58    992.47   1000.00       2.637
  WSC                   99.95    688.87   1536.64      14.758
  -----------------------------------------------------------
  System                49.04   4039.80   1536.64      33.366
  
  
  ********************
  Link Flow Summary
  ********************
  
  -----------------------------------------------------------------------------
                                 Maximum  Time of Max   Maximum    Max/    Max/
                                  |Flow|   Occurrence   |Veloc|    Full    Full
  Link                 Type          LPS  days hr:min     m/sec    Flow   Depth
  -----------------------------------------------------------------------------
  1                    CONDUIT   1536.64     0  02:16      3.72    0.54    0.52
  HS02004478WS02006287 CONDUIT   2304.01     0  02:11      2.60    0.64    1.00
  HS02004479HS02004480 CONDUIT    387.97     0  02:06      0.55    0.37    1.00
  HS02004480HS02004478 CONDUIT   2065.74     0  02:04      2.95    8.70    1.00
  HS02004770HS02004777 CONDUIT    718.30     0  02:02      1.03    1.31    1.00
  HS02004777HS02004785 CONDUIT    732.40     0  02:01      1.11    0.90    1.00
  HS02004785HS02004788 CONDUIT    679.45     0  02:02      1.36    5.12    1.00
  HS02004788HS02004792 CONDUIT    858.53     0  02:13      1.43    0.57    1.00
  HS02004792HS02004799 CONDUIT   1626.99     0  02:03      2.32    1.00    1.00
  HS02004799HS02004480 CONDUIT   1752.03     0  02:03      2.50    2.21    1.00
  HS02004802HS02004478 CONDUIT   1233.16     0  02:17      1.76    1.09    1.00
  HS02004807HS02004802 CONDUIT   1232.89     0  02:17      1.76    2.35    1.00
  HS02004817HS02004807 CONDUIT   1196.84     0  02:15      1.71    0.71    1.00
  HS02004817HS02004824 CONDUIT   1196.24     0  02:15      1.71    0.54    1.00
  HS02004824HS02004830 CONDUIT    584.71     0  02:03      0.84    0.77    1.00
  HS02004830HS02004837 CONDUIT    601.23     0  02:03      0.95    0.60    1.00
  HS02004837HS02004842 CONDUIT    764.09     0  02:03      1.09    0.46    1.00
  HS02004842HS02004848 CONDUIT    764.63     0  02:03      1.20    0.45    1.00
  HS02004848HS02004852 CONDUIT    992.71     0  02:05      1.57    1.12    1.00
  HS02004852HS02004856 CONDUIT    962.16     0  02:05      1.46    1.10    1.00
  HS02004856HS02004862 CONDUIT   1002.18     0  02:05      1.66    1.00    1.00
  HS02004862HS02004870 CONDUIT   1057.02     0  02:04      1.80    1.14    1.00
  HS02004870HS02004876 CONDUIT   1238.06     0  02:12      1.77    0.82    1.00
  HS02004876HS02004881 CONDUIT   1513.12     0  02:14      2.16   16.09    1.00
  HS02004881HS02006253 CONDUIT   1647.88     0  02:13      2.35    0.32    1.00
  HS02004901HS02004770 CONDUIT    265.79     0  02:27      0.38    1.00    1.00
  WS02001211WS02001212 CONDUIT    209.89     0  02:53      0.54    0.16    0.70
  WS02001212WS02001213 CONDUIT    214.18     0  02:52      1.04    0.33    0.57
  WS02001213WS02003059 CONDUIT    219.18     0  02:52      0.47    0.36    0.90
  WS02003059WS02003060 CONDUIT    224.57     0  02:51      0.66    0.15    0.82
  WS02003060WS02003069 CONDUIT   1533.47     0  02:15      2.09    0.60    0.62
  WS02003066WSF200     CONDUIT   1336.70     0  02:13      3.26    0.23    0.39
  WS02003067WS02003066 CONDUIT   1336.53     0  02:13      2.03    0.43    0.56
  WS02003069WS02003072 CONDUIT   1533.88     0  02:15      1.91    0.74    0.67
  WS02003072WS02003073 CONDUIT   1534.12     0  02:16      2.07    3.31    0.62
  WS02004138WS02004139 CONDUIT    190.00     0  00:32      2.16    0.04    0.42
  WS02004139WS02001211 CONDUIT    196.28     0  02:53      0.54    0.25    0.61
  WS02004401WS02004402 CONDUIT   1337.31     0  02:13      1.70    1.61    1.00
  WS02004402WS02004403 CONDUIT   1337.58     0  02:13      1.70    1.92    1.00
  WS02004403WS02004404 CONDUIT   1337.50     0  02:13      1.70    0.97    1.00
  WS02004404WS02004405 CONDUIT   1338.60     0  02:13      1.70   13.11    1.00
  WS02004405WS02004406 CONDUIT   1338.11     0  02:13      1.70    2.64    1.00
  WS02004406WS02004407 CONDUIT   1337.93     0  02:13      1.71    0.60    1.00
  WS02004407WS02004409 CONDUIT   1336.03     0  02:14      1.78    0.47    1.00
  WS02004409WS02004410 CONDUIT   1335.92     0  02:13      1.70    1.73    1.00
  WS02004410WS02004411 CONDUIT   1335.87     0  02:14      1.70    1.82    1.00
  WS02004411WS02004412 CONDUIT   1335.88     0  02:14      1.70    1.90    1.00
  WS02004412WS02004413 CONDUIT   1335.84     0  02:13      1.70    0.89    1.00
  WS02004413WS02003067 CONDUIT   1335.89     0  02:13      2.06    0.57    0.77
  WS02006109WS02006110 CONDUIT   1122.02     0  02:30      2.23    2.16    1.00
  WS02006110WS02006113 CONDUIT   1122.02     0  02:30      2.23    1.02    1.00
  WS02006111WS02006112 CONDUIT   1122.28     0  02:30      2.23    0.53    1.00
  WS02006112WS02006115 CONDUIT   1337.08     0  02:13      1.70    0.79    1.00
  WS02006113WS02006111 CONDUIT   1121.74     0  02:30      2.71    1.34    1.00
  WS02006115WS02006116 CONDUIT   1337.10     0  02:13      1.70    1.72    1.00
  WS02006116WS02004401 CONDUIT   1337.47     0  02:13      1.70    1.84    1.00
  WS02006228WS02006109 CONDUIT   1287.72     0  02:11      2.56    5.63    1.00
  WS02006229WS02006228 CONDUIT   1287.89     0  02:11      2.56    4.27    1.00
  WS02006230WS02006229 CONDUIT   1016.01     0  02:11      2.64   22.61    1.00
  WS02006231WS02006230 CONDUIT    473.50     0  03:46      1.38    7.18    1.00
  WS02006232WS02006231 CONDUIT    464.54     0  03:45      1.21    0.97    1.00
  WS02006234WS02006232 CONDUIT    461.99     0  03:45      1.39    0.93    1.00
  WS02006235WS02006234 CONDUIT    463.78     0  03:45      1.26    4.89    1.00
  WS02006238WS02006235 CONDUIT    434.98     0  03:43      1.45    0.97    1.00
  WS02006239WS02006238 CONDUIT    428.17     0  03:43      1.11    1.37    1.00
  WS02006240WS02006239 CONDUIT    424.33     0  03:43      1.25    1.34    1.00
  WS02006242WS02006240 CONDUIT    423.75     0  03:43      1.15    1.68    1.00
  WS02006243WS02006242 CONDUIT    424.44     0  03:43      1.36    0.91    1.00
  WS02006245WS02006243 CONDUIT    428.53     0  01:30      1.42    1.27    1.00
  WS02006247WS02006245 CONDUIT    439.61     0  01:30      1.41    3.49    1.00
  WS02006248WS02006247 CONDUIT    448.10     0  01:30      1.47    0.98    1.00
  WS02006249WS02006248 CONDUIT    502.15     0  01:35      1.44    2.75    1.00
  WS02006251WS02006249 CONDUIT   1375.91     0  02:13      3.58    3.97    1.00
  WS02006252WS02006251 CONDUIT    411.06     0  01:36     11.86    1.51    1.00
  WS02006253WS02006251 CONDUIT   1694.10     0  02:13      4.40    5.08    1.00
  WS02006256WS02006235 CONDUIT    288.93     0  00:00      4.23    3.06    1.00
  WS02006280WS02006229 CONDUIT   2304.79     0  02:11      3.83    0.49    1.00
  WS02006284WS02006280 CONDUIT   2303.81     0  02:11      3.02    0.96    1.00
  WS02006287WS02006284 CONDUIT   2303.49     0  02:11      2.93    1.07    1.00
  WSF200WS02003060     CONDUIT   1336.79     0  02:14      2.31    0.30    0.51
  YS02001580YS02001583 CONDUIT     86.95     0  01:36      0.60    0.34    1.00
  YS02001583YS02001586 CONDUIT    146.32     0  01:35      0.61    0.22    1.00
  YS02001586YS02001590 CONDUIT    318.40     0  01:41      1.28    0.56    1.00
  YS02001590YS02001593 CONDUIT    318.49     0  01:41      1.13    2.00    1.00
  YS02001593YS02001596 CONDUIT    317.88     0  02:25      1.75    0.50    1.00
  YS02001596YS02001600 CONDUIT    317.95     0  02:13      1.26    0.62    1.00
  YS02001600YS02001601 CONDUIT    317.99     0  01:41      1.12    0.55    1.00
  YS02001601YS02001602 CONDUIT    507.09     0  01:35      1.79    1.83    1.00
  YS02001602YS02001605 CONDUIT    507.30     0  01:35      1.79   10.74    1.00
  YS02001605YS02001607 CONDUIT    507.49     0  01:35      1.79    2.78    1.00
  YS02001607YS02001610 CONDUIT    509.50     0  01:35      0.65    0.48    1.00
  YS02001610YS02001613 CONDUIT    619.00     0  01:59      0.79    0.71    1.00
  YS02001613YS02001616 CONDUIT    618.82     0  01:59      0.79    0.53    1.00
  YS02001616YS02001619 CONDUIT    619.01     0  01:59      0.79    1.07    1.00
  YS02001619YS02001622 CONDUIT   1053.72     0  02:01      1.34    1.55    1.00
  YS02001622YS02001625 CONDUIT   1053.54     0  01:55      1.34    0.56    1.00
  YS02001625YS02001629 CONDUIT    935.36     0  01:39      1.19    0.44    1.00
  YS02001629YS02163301 CONDUIT   1047.04     0  01:50      1.33    1.29    1.00
  YS02001633YS02163601 CONDUIT   1395.22     0  01:39      1.78    1.46    1.00
  YS02001641YS02001644 CONDUIT   1392.16     0  01:39      1.77    4.50    1.00
  YS02001644YS02001647 CONDUIT   1788.70     0  01:39      2.29    1.05    1.00
  YS02001647YS02001649 CONDUIT   1806.52     0  01:40      2.33    0.95    1.00
  YS02001649YS02001757 CONDUIT   2043.49     0  01:40      2.60    1.24    1.00
  YS02001652YS02001649 CONDUIT   1635.31     0  01:50      2.08    0.81    1.00
  YS02001655YS02001652 CONDUIT   1634.52     0  01:50      2.08    0.79    1.00
  YS02001658YS02001655 CONDUIT   1633.55     0  01:50      2.08    0.69    1.00
  YS02001661YS02001658 CONDUIT   1632.78     0  01:50      2.31    0.64    1.00
  YS02001664YS02001661 CONDUIT   1632.69     0  01:50      2.32    0.51    1.00
  YS02001745YS02001748 CONDUIT    971.01     0  01:49      2.13    0.37    1.00
  YS02001748YS02001751 CONDUIT    971.80     0  01:49      1.66    0.49    1.00
  YS02001751YS02001754 CONDUIT    972.06     0  01:49      1.36    0.47    1.00
  YS02001754YS02001757 CONDUIT    972.57     0  01:49      1.24    0.39    1.00
  YS02001757CaochengTiaoxuchi CONDUIT   3614.60     0  01:49      6.48    1.56    1.00
  YS02001759YS02001757 CONDUIT   1540.34     0  01:53      1.96    1.09    1.00
  YS02001762YS02001759 CONDUIT    810.87     0  02:02      1.03    0.93    1.00
  YS02001765YS02001762 CONDUIT    810.01     0  02:02      1.03    0.76    1.00
  YS02001767YS02001765 CONDUIT    809.62     0  02:02      1.03    1.02    1.00
  YS02001770YS02001767 CONDUIT    809.42     0  02:02      1.03    3.21    1.00
  YS02001774YS02001770 CONDUIT    851.79     0  01:52      1.08    0.54    1.00
  YS02001779YS02001774 CONDUIT    851.49     0  01:54      1.08    0.43    1.00
  YS02001783YS02001784 CONDUIT   1188.27     0  01:49      2.36    1.64    1.00
  YS02001784YS02001785 CONDUIT   1190.20     0  01:49      2.37    2.77    1.00
  YS02001786YS02001788 CONDUIT   1190.63     0  01:49      2.53    2.29    0.89
  YS02001788YS02001790 CONDUIT   1196.44     0  01:50      2.75    0.88    0.85
  YS02001790YS02001791 CONDUIT   1303.16     0  01:51      3.44    1.42    0.71
  YS02001791YS02001793 CONDUIT   1265.86     0  01:50      6.45    0.54    0.43
  YS02001793JiankangQianchi CONDUIT   1335.55     0  01:55     23.80    0.11    0.50
  YS02001882YS02001884 CONDUIT     31.32     0  01:37      0.20    0.04    1.00
  YS02001884YS02001887 CONDUIT     74.08     0  01:38      0.15    0.10    1.00
  YS02001887YS02001890 CONDUIT   1488.73     0  01:49      1.90    2.55    1.00
  YS02001890YS02001895 CONDUIT    517.87     0  01:58      0.66    0.24    1.00
  YS02001895YS02001898 CONDUIT    517.69     0  02:00      0.66    0.90    1.00
  YS02001898YS02001901 CONDUIT    517.96     0  01:58      0.66    0.33    1.00
  YS02001901YS02001904 CONDUIT    517.79     0  02:02      0.66    0.80    1.00
  YS02001904YS02001907 CONDUIT    517.82     0  01:58      0.66    0.18    1.00
  YS02001907YS02006553 CONDUIT    787.81     0  02:16      0.88    0.93    1.00
  YS02001910YS02001907 CONDUIT   1992.83     0  01:51      2.54    1.12    1.00
  YS02001915YS02001910 CONDUIT   1992.97     0  01:52      2.54    0.99    1.00
  YS02001918YS02001915 CONDUIT    851.56     0  01:51      1.08    0.47    1.00
  YS02001920YS02001918 CONDUIT    851.45     0  01:51      1.08    0.82    1.00
  YS02001923YS02001920 CONDUIT    848.63     0  01:51      1.08    0.38    1.00
  YS02001926YS02001923 CONDUIT    848.44     0  01:50      1.08    1.21    1.00
  YS02001929YS02001926 CONDUIT    848.59     0  01:51      1.12    0.40    1.00
  YS02006553YS02006556 CONDUIT    787.29     0  02:16      1.00    0.67    1.00
  YS02006556YS02006558 CONDUIT    788.28     0  02:16      1.00    0.62    1.00
  YS02006558YS02006561 CONDUIT   1189.05     0  01:49      4.21    2.63    1.00
  YS02006561YS02001783 CONDUIT   1188.84     0  01:49      2.37    0.62    1.00
  YS02163301YS02001633 CONDUIT   1046.30     0  01:50      1.33    0.98    1.00
  YS02163601YS02164001 CONDUIT   1394.37     0  01:39      1.78    1.24    1.00
  YS02164001YS02001641 CONDUIT   1392.78     0  01:39      1.77    1.90    1.00
  YSB1154YSB6556       CONDUIT    465.50     0  02:13      1.21    0.84    1.00
  YSB1171HS02004479    CONDUIT    387.37     0  02:06      0.77    0.26    1.00
  YSB1174YSB1171       CONDUIT    392.27     0  02:13      1.02    0.60    1.00
  YSB6556YSB1171       CONDUIT    466.04     0  02:13      1.21    0.48    1.00
  CC-R1                PUMP       683.00     0  00:00              1.00
  CC-R2                PUMP       683.00     0  00:00              1.00
  CC-S1                PUMP       200.00     0  00:00              1.00
  CC-S2                PUMP       200.00     0  00:00              1.00
  JK-R1                PUMP      1000.00     0  00:00              1.00
  JK-R2                PUMP      1000.00     0  00:00              1.00
  JK-S                 PUMP       300.00     0  00:00              1.00
  XR-1                 PUMP        95.00     0  00:00              1.00
  XR-2                 PUMP        95.00     0  00:00              1.00
  XR-3                 PUMP        95.00     0  00:00              1.00
  XR-4                 PUMP        95.00     0  00:00              1.00
  
  
  ***************************
  Flow Classification Summary
  ***************************
  
  -------------------------------------------------------------------------------------
                      Adjusted    ---------- Fraction of Time in Flow Class ---------- 
                       /Actual         Up    Down  Sub   Sup   Up    Down  Norm  Inlet 
  Conduit               Length    Dry  Dry   Dry   Crit  Crit  Crit  Crit  Ltd   Ctrl  
  -------------------------------------------------------------------------------------
  1                       1.00   0.00  0.00  0.00  0.00  1.00  0.00  0.00  0.40  0.00
  HS02004478WS02006287    1.00   0.14  0.00  0.00  0.57  0.29  0.00  0.00  0.59  0.00
  HS02004479HS02004480    1.00   0.05  0.00  0.00  0.95  0.00  0.00  0.00  0.11  0.00
  HS02004480HS02004478    1.00   0.13  0.00  0.00  0.51  0.00  0.00  0.36  0.00  0.00
  HS02004770HS02004777    1.00   0.00  0.13  0.00  0.87  0.00  0.00  0.00  0.02  0.00
  HS02004777HS02004785    1.00   0.00  0.00  0.00  1.00  0.00  0.00  0.00  0.11  0.00
  HS02004785HS02004788    1.00   0.00  0.00  0.00  1.00  0.00  0.00  0.00  0.00  0.00
  HS02004788HS02004792    1.00   0.00  0.00  0.00  0.99  0.01  0.00  0.00  0.89  0.00
  HS02004792HS02004799    1.00   0.00  0.00  0.00  0.99  0.01  0.00  0.00  0.85  0.00
  HS02004799HS02004480    1.00   0.00  0.05  0.00  0.86  0.00  0.08  0.00  0.00  0.00
  HS02004802HS02004478    1.00   0.13  0.00  0.00  0.87  0.00  0.00  0.00  0.02  0.00
  HS02004807HS02004802    1.00   0.13  0.00  0.00  0.87  0.00  0.00  0.01  0.00  0.00
  HS02004817HS02004807    1.00   0.00  0.13  0.00  0.87  0.00  0.00  0.00  0.01  0.00
  HS02004817HS02004824    1.00   0.00  0.00  0.00  1.00  0.00  0.00  0.00  0.81  0.00
  HS02004824HS02004830    1.00   0.00  0.00  0.00  1.00  0.00  0.00  0.00  0.01  0.00
  HS02004830HS02004837    1.00   0.00  0.00  0.00  1.00  0.00  0.00  0.00  0.87  0.00
  HS02004837HS02004842    1.00   0.00  0.00  0.00  1.00  0.00  0.00  0.00  0.11  0.00
  HS02004842HS02004848    1.00   0.00  0.13  0.00  0.87  0.00  0.00  0.00  0.56  0.00
  HS02004848HS02004852    1.00   0.13  0.00  0.00  0.87  0.00  0.00  0.00  0.69  0.00
  HS02004852HS02004856    1.00   0.13  0.00  0.00  0.87  0.00  0.00  0.00  0.67  0.00
  HS02004856HS02004862    1.00   0.00  0.14  0.00  0.86  0.00  0.00  0.00  0.74  0.00
  HS02004862HS02004870    1.00   0.00  0.00  0.00  1.00  0.00  0.00  0.00  0.03  0.00
  HS02004870HS02004876    1.00   0.00  0.00  0.00  0.97  0.02  0.00  0.00  0.85  0.00
  HS02004876HS02004881    1.00   0.02  0.00  0.00  0.74  0.24  0.00  0.00  0.00  0.00
  HS02004881HS02006253    1.00   0.00  0.07  0.00  0.51  0.01  0.00  0.41  0.21  0.00
  HS02004901HS02004770    1.00   0.13  0.00  0.00  0.87  0.00  0.00  0.00  0.00  0.00
  WS02001211WS02001212    1.00   0.00  0.03  0.00  0.97  0.00  0.00  0.00  0.00  0.00
  WS02001212WS02001213    1.00   0.03  0.00  0.00  0.52  0.00  0.45  0.00  0.00  0.00
  WS02001213WS02003059    1.00   0.00  0.00  0.00  0.99  0.00  0.00  0.00  0.00  0.00
  WS02003059WS02003060    1.00   0.00  0.00  0.00  1.00  0.00  0.00  0.00  0.03  0.00
  WS02003060WS02003069    1.00   0.00  0.00  0.00  0.97  0.03  0.00  0.00  0.57  0.00
  WS02003066WSF200        1.00   0.08  0.00  0.00  0.00  0.92  0.00  0.00  0.65  0.00
  WS02003067WS02003066    1.00   0.07  0.01  0.00  0.93  0.00  0.00  0.00  0.00  0.00
  WS02003069WS02003072    1.00   0.00  0.00  0.00  1.00  0.00  0.00  0.00  0.63  0.00
  WS02003072WS02003073    1.00   0.00  0.00  0.00  0.00  0.00  0.00  1.00  0.00  0.00
  WS02004138WS02004139    1.00   0.00  0.01  0.00  0.97  0.01  0.00  0.01  0.98  0.00
  WS02004139WS02001211    1.00   0.00  0.00  0.00  0.99  0.00  0.00  0.00  0.00  0.00
  WS02004401WS02004402    1.00   0.03  0.00  0.00  0.97  0.00  0.00  0.00  0.00  0.00
  WS02004402WS02004403    1.00   0.03  0.00  0.00  0.97  0.00  0.00  0.00  0.00  0.00
  WS02004403WS02004404    1.00   0.00  0.03  0.00  0.97  0.00  0.00  0.00  0.00  0.00
  WS02004404WS02004405    1.00   0.00  0.00  0.00  1.00  0.00  0.00  0.00  0.00  0.00
  WS02004405WS02004406    1.00   0.00  0.00  0.00  1.00  0.00  0.00  0.00  0.00  0.00
  WS02004406WS02004407    1.00   0.00  0.05  0.00  0.95  0.00  0.00  0.00  0.00  0.00
  WS02004407WS02004409    1.00   0.05  0.00  0.00  0.93  0.01  0.00  0.00  0.82  0.00
  WS02004409WS02004410    1.00   0.05  0.00  0.00  0.95  0.00  0.00  0.00  0.00  0.00
  WS02004410WS02004411    1.00   0.05  0.00  0.00  0.94  0.00  0.00  0.00  0.00  0.00
  WS02004411WS02004412    1.00   0.05  0.00  0.00  0.94  0.00  0.00  0.00  0.00  0.00
  WS02004412WS02004413    1.00   0.06  0.00  0.00  0.94  0.00  0.00  0.00  0.00  0.00
  WS02004413WS02003067    1.00   0.06  0.01  0.00  0.00  0.00  0.93  0.00  0.00  0.00
  WS02006109WS02006110    1.00   0.00  0.01  0.00  0.98  0.00  0.01  0.00  0.00  0.00
  WS02006110WS02006113    1.00   0.01  0.01  0.00  0.98  0.00  0.00  0.00  0.00  0.00
  WS02006111WS02006112    1.00   0.02  0.00  0.00  0.97  0.00  0.00  0.00  0.75  0.00
  WS02006112WS02006115    1.00   0.02  0.00  0.00  0.97  0.00  0.01  0.00  0.00  0.00
  WS02006113WS02006111    1.00   0.02  0.00  0.00  0.36  0.63  0.00  0.00  0.07  0.00
  WS02006115WS02006116    1.00   0.02  0.00  0.00  0.97  0.00  0.00  0.01  0.00  0.00
  WS02006116WS02004401    1.00   0.02  0.00  0.00  0.97  0.00  0.00  0.00  0.00  0.00
  WS02006228WS02006109    1.00   0.00  0.00  0.00  1.00  0.00  0.00  0.00  0.00  0.00
[...]
  WS02006280WS02006229    1.00   0.13  0.00  0.00  0.30  0.05  0.00  0.51  0.01  0.00
  WS02006284WS02006280    1.00   0.13  0.00  0.00  0.21  0.02  0.00  0.64  0.00  0.00
  WS02006287WS02006284    1.00   0.12  0.03  0.00  0.48  0.38  0.00  0.00  0.65  0.00
  WSF200WS02003060        1.00   0.00  0.08  0.00  0.42  0.51  0.00  0.00  0.62  0.00
  YS02001580YS02001583    1.00   0.18  0.37  0.00  0.44  0.00  0.00  0.00  0.65  0.00
  YS02001583YS02001586    1.00   0.32  0.17  0.00  0.50  0.00  0.00  0.00  0.65  0.00
  YS02001586YS02001590    1.00   0.13  0.00  0.00  0.61  0.02  0.00  0.24  0.30  0.00
  YS02001590YS02001593    1.00   0.13  0.00  0.00  0.34  0.00  0.53  0.00  0.00  0.00
  YS02001593YS02001596    1.00   0.13  0.00  0.00  0.37  0.01  0.00  0.50  0.02  0.00
  YS02001596YS02001600    1.00   0.13  0.00  0.00  0.42  0.01  0.00  0.44  0.03  0.00
  YS02001600YS02001601    1.00   0.13  0.00  0.00  0.87  0.00  0.00  0.00  0.58  0.00
  YS02001601YS02001602    1.00   0.13  0.00  0.00  0.87  0.00  0.00  0.00  0.00  0.00
  YS02001602YS02001605    1.00   0.13  0.00  0.00  0.87  0.00  0.00  0.00  0.00  0.00
  YS02001605YS02001607    1.00   0.13  0.00  0.00  0.87  0.00  0.00  0.00  0.00  0.00
  YS02001607YS02001610    1.00   0.13  0.00  0.00  0.87  0.00  0.00  0.00  0.01  0.00
  YS02001610YS02001613    1.00   0.13  0.00  0.00  0.87  0.00  0.00  0.00  0.00  0.00
  YS02001613YS02001616    1.00   0.13  0.00  0.00  0.87  0.00  0.00  0.00  0.00  0.00
  YS02001616YS02001619    1.00   0.13  0.00  0.00  0.87  0.00  0.00  0.00  0.00  0.00
  YS02001619YS02001622    1.00   0.13  0.00  0.00  0.87  0.00  0.00  0.00  0.33  0.00
  YS02001622YS02001625    1.00   0.13  0.00  0.00  0.87  0.00  0.00  0.00  0.02  0.00
  YS02001625YS02001629    1.00   0.13  0.01  0.00  0.39  0.00  0.47  0.00  0.00  0.00
  YS02001629YS02163301    1.00   0.13  0.00  0.00  0.86  0.00  0.00  0.00  0.00  0.00
  YS02001633YS02163601    1.00   0.00  0.01  0.00  0.99  0.00  0.00  0.00  0.14  0.00
  YS02001641YS02001644    1.00   0.00  0.00  0.00  1.00  0.00  0.00  0.00  0.00  0.00
  YS02001644YS02001647    1.00   0.00  0.14  0.00  0.86  0.00  0.00  0.00  0.00  0.00
  YS02001647YS02001649    1.00   0.00  0.14  0.00  0.62  0.25  0.00  0.00  0.57  0.00
  YS02001649YS02001757    1.00   0.00  0.00  0.00  0.74  0.25  0.00  0.00  0.48  0.00
  YS02001652YS02001649    1.00   0.00  0.00  0.00  0.99  0.01  0.00  0.00  0.71  0.00
  YS02001655YS02001652    1.00   0.00  0.00  0.00  0.41  0.01  0.00  0.58  0.05  0.00
  YS02001658YS02001655    1.00   0.00  0.13  0.00  0.67  0.20  0.00  0.00  0.66  0.00
  YS02001661YS02001658    1.00   0.13  0.00  0.00  0.50  0.37  0.00  0.00  0.70  0.00
  YS02001664YS02001661    1.00   0.13  0.00  0.00  0.61  0.26  0.00  0.00  0.83  0.00
  YS02001745YS02001748    1.00   0.00  0.00  0.00  0.24  0.03  0.00  0.74  0.07  0.00
  YS02001748YS02001751    1.00   0.00  0.00  0.00  0.83  0.17  0.00  0.00  0.77  0.00
  YS02001751YS02001754    1.00   0.00  0.00  0.00  0.37  0.01  0.00  0.62  0.03  0.00
  YS02001754YS02001757    1.00   0.00  0.00  0.00  1.00  0.00  0.00  0.00  0.79  0.00
  YS02001757CaochengTiaoxuchi    1.00   0.00  0.00  0.00  0.60  0.40  0.00  0.00  0.48  0.00
  YS02001759YS02001757    1.00   0.00  0.00  0.00  1.00  0.00  0.00  0.00  0.64  0.00
  YS02001762YS02001759    1.00   0.00  0.00  0.00  1.00  0.00  0.00  0.00  0.03  0.00
  YS02001765YS02001762    1.00   0.00  0.00  0.00  1.00  0.00  0.00  0.00  0.71  0.00
  YS02001767YS02001765    1.00   0.00  0.00  0.00  1.00  0.00  0.00  0.00  0.00  0.00
  YS02001770YS02001767    1.00   0.00  0.00  0.00  1.00  0.00  0.00  0.00  0.00  0.00
  YS02001774YS02001770    1.00   0.00  0.13  0.00  0.73  0.00  0.15  0.00  0.01  0.00
  YS02001779YS02001774    1.00   0.00  0.00  0.00  1.00  0.00  0.00  0.00  0.75  0.00
  YS02001783YS02001784    1.00   0.00  0.14  0.00  0.86  0.00  0.00  0.00  0.56  0.00
  YS02001784YS02001785    1.00   0.00  0.00  0.00  1.00  0.00  0.00  0.00  0.14  0.00
  YS02001786YS02001788    1.00   0.00  0.00  0.00  0.70  0.30  0.00  0.00  0.00  0.00
  YS02001788YS02001790    1.00   0.00  0.00  0.00  0.22  0.78  0.00  0.00  0.77  0.00
  YS02001790YS02001791    1.00   0.00  0.00  0.00  0.01  0.99  0.00  0.00  0.15  0.00
  YS02001791YS02001793    1.00   0.00  0.00  0.00  0.00  1.00  0.00  0.00  0.02  0.00
  YS02001793JiankangQianchi    1.00   0.00  0.00  0.00  0.12  0.87  0.00  0.00  0.59  0.00
  YS02001882YS02001884    1.00   0.13  0.00  0.00  0.87  0.00  0.00  0.00  0.00  0.00
  YS02001884YS02001887    1.00   0.09  0.03  0.00  0.88  0.00  0.00  0.00  0.00  0.00
  YS02001887YS02001890    1.00   0.00  0.00  0.00  0.96  0.00  0.04  0.00  0.00  0.00
  YS02001890YS02001895    1.00   0.00  0.13  0.00  0.86  0.00  0.00  0.00  0.00  0.00
  YS02001895YS02001898    1.00   0.14  0.00  0.00  0.86  0.00  0.00  0.00  0.00  0.00
  YS02001898YS02001901    1.00   0.14  0.00  0.00  0.86  0.00  0.00  0.00  0.00  0.00
  YS02001901YS02001904    1.00   0.14  0.00  0.00  0.86  0.00  0.00  0.00  0.00  0.00
  YS02001904YS02001907    1.00   0.00  0.13  0.00  0.86  0.00  0.00  0.00  0.00  0.00
  YS02001907YS02006553    1.00   0.00  0.02  0.00  0.97  0.00  0.00  0.00  0.00  0.00
  YS02001910YS02001907    1.00   0.00  0.00  0.00  0.96  0.01  0.00  0.03  0.11  0.00
  YS02001915YS02001910    1.00   0.00  0.00  0.00  0.97  0.03  0.00  0.00  0.12  0.00
  YS02001918YS02001915    1.00   0.00  0.00  0.00  0.97  0.02  0.00  0.00  0.69  0.00
  YS02001920YS02001918    1.00   0.00  0.00  0.00  1.00  0.00  0.00  0.00  0.00  0.00
  YS02001923YS02001920    1.00   0.00  0.00  0.00  1.00  0.00  0.00  0.00  0.88  0.00
  YS02001926YS02001923    1.00   0.00  0.10  0.00  0.19  0.00  0.72  0.00  0.00  0.00
  YS02001929YS02001926    1.00   0.00  0.13  0.00  0.87  0.00  0.00  0.00  0.79  0.00
  YS02006553YS02006556    1.00   0.01  0.00  0.00  0.99  0.00  0.00  0.00  0.03  0.00
  YS02006556YS02006558    1.00   0.00  0.00  0.00  1.00  0.00  0.00  0.00  0.00  0.00
  YS02006558YS02006561    1.00   0.14  0.00  0.00  0.18  0.68  0.00  0.00  0.14  0.00
  YS02006561YS02001783    1.00   0.14  0.00  0.00  0.25  0.61  0.00  0.00  0.65  0.00
  YS02163301YS02001633    1.00   0.00  0.13  0.00  0.87  0.00  0.00  0.00  0.00  0.00
  YS02163601YS02164001    1.00   0.00  0.10  0.00  0.90  0.00  0.00  0.00  0.00  0.00
  YS02164001YS02001641    1.00   0.01  0.10  0.00  0.90  0.00  0.00  0.00  0.05  0.00
  YSB1154YSB6556          1.00   0.13  0.00  0.00  0.87  0.00  0.00  0.00  0.02  0.00
  YSB1171HS02004479       1.00   0.06  0.00  0.00  0.92  0.00  0.00  0.02  0.10  0.00
  YSB1174YSB1171          1.00   0.08  0.03  0.00  0.89  0.00  0.00  0.00  0.00  0.00
  YSB6556YSB1171          1.00   0.06  0.07  0.00  0.87  0.00  0.00  0.00  0.00  0.00
  
  
  *************************
  Conduit Surcharge Summary
  *************************
  
  ----------------------------------------------------------------------------
                                                           Hours        Hours 
                         --------- Hours Full --------   Above Full   Capacity
  Conduit                Both Ends  Upstream  Dnstream   Normal Flow   Limited
  ----------------------------------------------------------------------------
  HS02004478WS02006287        0.52      0.52      0.71      0.01         0.01
  HS02004479HS02004480        0.70      0.70      0.73      0.01         0.01
  HS02004480HS02004478        0.63      0.70      0.63      1.72         0.63
  HS02004770HS02004777        0.60      0.60      0.61      0.11         0.06
  HS02004777HS02004785        0.56      0.56      0.61      0.01         0.01
  HS02004785HS02004788        0.55      0.56      0.55      1.47         0.48
  HS02004788HS02004792        0.55      0.55      0.67      0.01         0.01
  HS02004792HS02004799        0.67      0.67      0.80      0.01         0.01
  HS02004799HS02004480        0.70      0.70      0.80      0.90         0.01
  HS02004802HS02004478        0.64      0.64      0.72      0.13         0.01
  HS02004807HS02004802        0.68      0.68      0.71      0.28         0.30
  HS02004817HS02004807        0.68      0.68      1.29      0.01         0.01
  HS02004817HS02004824        0.55      0.55      1.29      0.01         0.01
  HS02004824HS02004830        0.52      0.52      0.55      0.01         0.01
  HS02004830HS02004837        0.48      0.48      0.52      0.01         0.01
  HS02004837HS02004842        0.48      0.48      0.61      0.01         0.01
  HS02004842HS02004848        0.44      0.44      0.61      0.01         0.01
  HS02004848HS02004852        0.44      0.44      0.46      0.02         0.01
  HS02004852HS02004856        0.46      0.46      0.48      0.02         0.01
  HS02004856HS02004862        0.45      0.45      0.49      0.01         0.01
  HS02004862HS02004870        0.49      0.49      0.51      0.24         0.23
  HS02004870HS02004876        0.51      0.51      0.58      0.01         0.01
  HS02004876HS02004881        0.56      0.58      0.56      1.49         0.56
  HS02004881HS02006253        0.56      0.56      2.19      0.01         0.01
  HS02004901HS02004770        0.60      0.60      0.61      0.01         0.01
  WS02003072WS02003073        0.01      0.01      0.01      2.56         0.01
  WS02004401WS02004402        1.65      1.65      1.68      1.48         1.43
  WS02004402WS02004403        1.68      1.68      1.69      1.64         1.63
  WS02004403WS02004404        1.69      1.69      1.86      0.01         0.03
  WS02004404WS02004405        1.82      1.86      1.82      3.19         1.81
  WS02004405WS02004406        1.78      1.82      1.78      2.25         1.78
  WS02004406WS02004407        0.01      0.01      1.78      0.01         0.01
  WS02004407WS02004409        0.01      0.01      1.07      0.01         0.01
  WS02004409WS02004410        1.00      1.07      1.00      1.55         1.00
  WS02004410WS02004411        0.91      1.00      0.91      1.60         0.91
  WS02004411WS02004412        0.82      0.91      0.82      1.63         0.82
  WS02004412WS02004413        0.82      0.82      1.40      0.01         0.01
  WS02004413WS02003067        0.01      0.01      1.40      0.01         0.01
  WS02006109WS02006110        2.16      2.16      2.51      2.17         0.01
  WS02006110WS02006113        1.37      1.37      2.47      0.27         0.01
  WS02006111WS02006112        1.34      1.34      2.58      0.01         0.01
  WS02006112WS02006115        1.56      1.56      2.27      0.01         0.01
  WS02006113WS02006111        1.36      1.37      1.36      1.47         1.35
  WS02006115WS02006116        1.57      1.57      1.58      1.54         1.54
  WS02006116WS02004401        1.64      1.64      1.65      1.61         1.60
  WS02006228WS02006109        2.41      2.51      2.41      2.81         2.41
  WS02006229WS02006228        2.39      2.45      2.39      2.68         2.39
  WS02006230WS02006229        2.58      2.62      2.58      3.26         1.33
  WS02006231WS02006230        1.95      1.95      2.25      2.97         1.23
  WS02006232WS02006231        2.20      2.20      2.48      0.01         0.17
  WS02006234WS02006232        2.28      2.28      2.48      0.01         0.09
  WS02006235WS02006234        2.24      2.25      2.36      2.78         1.15
  WS02006238WS02006235        2.38      2.38      2.49      0.01         0.22
  WS02006239WS02006238        2.42      2.47      2.42      1.83         0.95
  WS02006240WS02006239        2.34      2.37      2.35      1.83         0.87
  WS02006242WS02006240        2.35      2.35      2.55      2.07         0.97
  WS02006243WS02006242        2.37      2.37      2.48      0.01         0.03
  WS02006245WS02006243        2.34      2.35      2.34      0.99         0.79
  WS02006247WS02006245        2.34      2.39      2.34      2.57         1.09
  WS02006248WS02006247        2.33      2.33      2.37      0.01         0.12
  WS02006249WS02006248        2.31      2.31      2.35      1.43         0.01
  WS02006251WS02006249        2.35      2.39      2.35      2.63         2.33
  WS02006252WS02006251        2.71      2.71      2.71      2.39         0.07
  WS02006253WS02006251        2.36      2.37      2.42      0.82         0.01
  WS02006256WS02006235        2.90      2.99      6.06      0.14         0.17
  WS02006280WS02006229        0.82      0.82      0.94      0.01         0.01
  WS02006284WS02006280        0.73      0.73      0.81      0.01         0.01
  WS02006287WS02006284        0.62      0.62      0.74      0.32         0.32
  YS02001580YS02001583        1.04      1.04      1.07      0.01         0.01
  YS02001583YS02001586        1.05      1.05      1.16      0.01         0.01
  YS02001586YS02001590        1.17      1.17      1.26      0.01         0.01
  YS02001590YS02001593        1.26      1.26      1.28      1.37         0.01
  YS02001593YS02001596        1.27      1.27      1.40      0.01         0.01
  YS02001596YS02001600        1.47      1.47      1.58      0.01         0.01
  YS02001600YS02001601        1.62      1.62      1.81      0.01         0.01
  YS02001601YS02001602        1.74      1.74      1.84      1.61         0.01
  YS02001602YS02001605        1.70      1.70      1.74      2.42         0.01
  YS02001605YS02001607        1.67      1.70      1.67      1.79         1.67
  YS02001607YS02001610        1.20      1.20      1.24      0.01         0.01
  YS02001610YS02001613        1.19      1.19      1.24      0.01         0.01
  YS02001613YS02001616        1.14      1.14      1.19      0.01         0.01
  YS02001616YS02001619        1.12      1.12      1.14      0.24         0.12
  YS02001619YS02001622        1.11      1.12      1.11      1.30         1.08
  YS02001622YS02001625        1.11      1.11      1.34      0.01         0.01
  YS02001625YS02001629        1.02      1.02      1.34      0.01         0.01
  YS02001629YS02163301        1.32      1.32      1.34      0.53         0.38
  YS02001633YS02163601        1.36      1.36      1.40      0.66         0.64
  YS02001641YS02001644        1.21      1.26      1.21      1.85         1.20
  YS02001644YS02001647        0.90      0.90      1.21      0.04         0.01
  YS02001647YS02001649        0.90      0.90      1.05      0.01         0.01
  YS02001649YS02001757        1.05      1.05      1.11      0.51         0.43
  YS02001652YS02001649        0.80      0.80      1.05      0.01         0.01
  YS02001655YS02001652        0.53      0.53      0.76      0.01         0.01
  YS02001658YS02001655        0.38      0.38      0.53      0.01         0.01
  YS02001661YS02001658        0.21      0.21      0.38      0.01         0.01
  YS02001664YS02001661        0.06      0.06      0.27      0.01         0.01
  YS02001745YS02001748        0.03      0.03      0.28      0.01         0.01
  YS02001748YS02001751        0.34      0.34      0.42      0.01         0.01
  YS02001751YS02001754        0.42      0.42      0.57      0.01         0.01
  YS02001754YS02001757        0.64      0.64      1.11      0.01         0.01
  YS02001757CaochengTiaoxuchi        0.71      1.11      1.21      0.72         0.27
  YS02001759YS02001757        0.98      0.98      1.11      0.21         0.22
  YS02001762YS02001759        0.93      0.93      0.98      0.01         0.03
  YS02001765YS02001762        0.86      0.86      0.93      0.01         0.01
  YS02001767YS02001765        0.81      0.81      0.86      0.01         0.05
  YS02001770YS02001767        0.81      0.82      0.81      0.80         0.64
  YS02001774YS02001770        0.78      0.78      0.91      0.01         0.01
  YS02001779YS02001774        0.58      0.58      0.91      0.01         0.01
  YS02001783YS02001784        0.79      0.82      0.79      1.01         0.79
  YS02001784YS02001785        0.66      0.79      0.66      1.38         0.66
  YS02001786YS02001788        0.01      0.66      0.01      1.16         0.01
  YS02001790YS02001791        0.01      0.01      0.01      0.77         0.01
  YS02001882YS02001884        0.75      0.75      0.76      0.01         0.01
  YS02001884YS02001887        0.79      0.79      0.81      0.01         0.01
  YS02001887YS02001890        0.83      0.83      0.84      0.29         0.01
  YS02001890YS02001895        0.74      0.74      0.87      0.01         0.01
  YS02001895YS02001898        0.73      0.73      0.74      0.01         0.01
  YS02001898YS02001901        0.74      0.74      0.79      0.01         0.01
  YS02001901YS02001904        0.78      0.78      0.79      0.01         0.01
  YS02001904YS02001907        0.78      0.78      1.14      0.01         0.01
  YS02001907YS02006553        1.39      1.39      1.49      0.01         0.01
  YS02001910YS02001907        0.86      0.86      1.09      0.18         0.17
  YS02001915YS02001910        0.75      0.75      0.86      0.01         0.03
  YS02001918YS02001915        0.64      0.64      0.75      0.01         0.01
  YS02001920YS02001918        0.64      0.64      0.66      0.01         0.01
  YS02001923YS02001920        0.58      0.58      0.66      0.01         0.01
  YS02001926YS02001923        0.30      0.30      0.32      0.14         0.01
  YS02001929YS02001926        0.19      0.19      0.32      0.01         0.01
  YS02006553YS02006556        0.98      0.98      1.13      0.01         0.01
  YS02006556YS02006558        1.06      1.06      1.17      0.01         0.01
  YS02006558YS02006561        0.68      0.97      0.68      1.31         0.68
  YS02006561YS02001783        0.60      0.60      0.82      0.01         0.01
  YS02163301YS02001633        1.34      1.34      1.38      0.01         0.01
  YS02163601YS02164001        1.27      1.27      1.40      0.23         0.01
  YS02164001YS02001641        1.26      1.27      1.26      1.15         0.99
  YSB1154YSB6556              0.77      0.77      0.92      0.01         0.01
  YSB1171HS02004479           0.66      0.66      0.93      0.01         0.01
  YSB1174YSB1171              0.84      0.84      1.20      0.01         0.01
  YSB6556YSB1171              0.77      0.77      1.36      0.01         0.01
  
  
  ***************
  Pumping Summary
  ***************
  
  ---------------------------------------------------------------------------------------------------------
                                                  Min       Avg       Max     Total     Power    % Time Off
                        Percent   Number of      Flow      Flow      Flow    Volume     Usage    Pump Curve
  Pump                 Utilized   Start-Ups       LPS       LPS       LPS  10^6 ltr     Kw-hr    Low   High
  ---------------------------------------------------------------------------------------------------------
  CC-R1                   33.89           4      0.00    683.00    683.00     6.666    114.82    0.0   55.2
  CC-R2                   33.89           4      0.00    683.00    683.00     6.666    114.82    0.0   55.2
  CC-S1                   33.89           4      0.00    200.00    200.00     1.952     14.96    0.0   22.0
  CC-S2                   33.89           4      0.00    200.00    200.00     1.952     14.96    0.0   22.0
  JK-R1                    9.43         450      0.00    992.47   1000.00     2.679      6.51    0.0    0.0
  JK-R2                    9.43         450      0.00    992.47   1000.00     2.679      6.51    0.0    0.0
  JK-S                     9.43         450      0.00    299.90    300.00     0.814     18.59    0.0    0.0
  XR-1                    97.91           2      0.00     95.00     95.00     2.679      9.63    0.0    0.0
  XR-2                    93.94           2      0.00     95.00     95.00     2.570      8.78    0.0    0.0
  XR-3                     0.00           1      0.00     95.00     95.00     0.000      0.00    0.0    0.0
  XR-4                     0.00           1      0.00     95.00     95.00     0.000      0.00    0.0    0.0
  

  Analysis begun on:  Thu Jul 20 17:15:22 2023
  Analysis ended on:  Thu Jul 20 17:15:44 2023
  Total elapsed time: 00:00:22