
  OWA STORM WATER MANAGEMENT MODEL - VERSION v5.1.14 (OWA 2022-07-31)
  --------------------------------------------------------------

  WARNING 04: minimum elevation drop used for Conduit WS02004404WS02004405
  WARNING 03: negative offset ignored for Link YS02001904YS02001907
  
  *********************************************************
  NOTE: The summary statistics displayed in this report are
  based on results found at every computational time step,  
  not just on results from each reporting time step.
  *********************************************************
  
  ****************
  Analysis Options
  ****************
  Flow Units ............... LPS
  Process Models:
    Rainfall/Runoff ........ YES
    RDII ................... NO
    Snowmelt ............... NO
    Groundwater ............ NO
    Flow Routing ........... YES
    Ponding Allowed ........ NO
    Water Quality .......... NO
  Infiltration Method ...... HORTON
  Flow Routing Method ...... DYNWAVE
  Surcharge Method ......... EXTRAN
  Starting Date ............ 08/28/2015 08:00:00
  Ending Date .............. 08/28/2015 16:00:00
  Antecedent Dry Days ...... 8.0
  Report Time Step ......... 00:01:00
  Wet Time Step ............ 00:01:00
  Dry Time Step ............ 00:01:00
  Routing Time Step ........ 30.00 sec
  Variable Time Step ....... YES
  Maximum Trials ........... 8
  Number of Threads ........ 4
  Head Tolerance ........... 0.001500 m
  
  
  **************************        Volume         Depth
  Runoff Quantity Continuity     hectare-m            mm
  **************************     ---------       -------
  Initial LID Storage ......         0.072         1.184
  Total Precipitation ......         1.641        27.097
  Evaporation Loss .........         0.000         0.000
  Infiltration Loss ........         0.177         2.917
  Surface Runoff ...........         1.140        18.819
  Final Storage ............         0.397         6.551
  Continuity Error (%) .....        -0.021
  
  
  **************************        Volume        Volume
  Flow Routing Continuity        hectare-m      10^6 ltr
  **************************     ---------     ---------
  Dry Weather Inflow .......         0.630         6.296
  Wet Weather Inflow .......         1.140        11.398
  Groundwater Inflow .......         0.000         0.000
  RDII Inflow ..............         0.000         0.000
  External Inflow ..........         0.105         1.045
  External Outflow .........         1.852        18.524
  Flooding Loss ............         0.197         1.972
  Evaporation Loss .........         0.000         0.000
  Exfiltration Loss ........         0.000         0.000
  Initial Stored Volume ....         0.303         3.031
  Final Stored Volume ......         0.187         1.872
  Continuity Error (%) .....        -2.748
  
  
  *************************
  Highest Continuity Errors
  *************************
  Node JK-storage (-29.27%)
  Node YS02001884 (6.76%)
  Node WS02006256 (-6.32%)
  Node YS02001583 (-6.13%)
  Node HS02004842 (5.78%)
  
  
  ***************************
  Time-Step Critical Elements
  ***************************
  Link WS02006280WS02006229 (59.12%)
  Link WS02006238WS02006235 (14.35%)
  Link YS02001793JiankangQianchi (4.40%)
  Link WS02003066WSF200 (3.81%)
  Link WS02006252WS02006251 (2.91%)
  
  
  ********************************
  Highest Flow Instability Indexes
  ********************************
  Link WS02006113WS02006111 (29)
  Link WS02006256WS02006235 (27)
  Link WS02004404WS02004405 (22)
  Link WS02004403WS02004404 (18)
  Link WS02006238WS02006235 (17)
  
  
  *************************
  Routing Time Step Summary
  *************************
  Minimum Time Step           :     0.00 sec
  Average Time Step           :     2.68 sec
  Maximum Time Step           :     6.46 sec
  Percent in Steady State     :     0.00
  Average Iterations per Step :     3.88
  Percent Not Converging      :    23.71
  
  
  ***************************
  Subcatchment Runoff Summary
  ***************************
  
  ------------------------------------------------------------------------------------------------------------------------------
                            Total      Total      Total      Total     Imperv       Perv      Total       Total     Peak  Runoff
                           Precip      Runon       Evap      Infil     Runoff     Runoff     Runoff      Runoff   Runoff   Coeff
  Subcatchment                 mm         mm         mm         mm         mm         mm         mm    10^6 ltr      LPS
  ------------------------------------------------------------------------------------------------------------------------------
  sub0                      27.10       0.00       0.00       0.93      23.94       0.97      24.92        0.02    13.56   0.920
  sub1                      27.10       0.00       0.00       1.36      20.50       1.31      21.81        0.15    73.21   0.805
  sub2                      27.10       0.00       0.00       5.82      14.98       3.47      18.44        0.17    68.65   0.681
  sub3                      27.10       0.00       0.00       6.10      14.81       3.11      17.92        0.40   143.83   0.661
  sub4                      27.10       0.00       0.00       1.45      20.13       1.18      21.31        0.44   159.13   0.787
  sub5                      27.10       0.00       0.00       0.78      19.84       0.79      20.63        0.23   122.65   0.761
  sub7                      27.10       0.00       0.00       0.93      18.14       0.96      19.10        0.06    39.19   0.705
  sub8                      27.10       0.00       0.00       0.91      17.62       0.93      18.55        0.12    69.34   0.685
  sub9                      27.10       0.00       0.00       0.88      17.09       0.90      17.98        0.09    50.46   0.664
  sub10                     27.10       0.00       0.00       0.88      19.22       0.88      20.10        0.22   119.84   0.742
  sub11                     27.10       0.00       0.00       0.81      17.87       0.83      18.70        0.22   129.44   0.690
  sub12                     27.10       0.00       0.00       1.41      18.17       1.45      19.62        0.17   110.64   0.724
  sub14                     27.10       0.00       0.00       0.87      16.92       0.89      17.81        0.17    98.29   0.657
  sub15                     27.10       0.00       0.00       3.82      15.21       3.05      18.26        0.31   153.00   0.674
  sub16                     27.10       0.00       0.00       4.10      14.84       3.60      18.44        0.19   104.90   0.680
  sub17                     27.10       0.00       0.00       4.38      16.38       3.74      20.12        0.17    91.09   0.742
  sub22                     27.10       0.00       0.00       6.66      14.20       4.62      18.82        1.19   542.91   0.695
  sub23                     27.10       0.00       0.00       5.08      14.62       3.97      18.59        0.89   435.80   0.686
  sub60                     27.10       0.00       0.00       1.25      17.48       1.26      18.73        0.25   146.43   0.691
  sub61                     27.10       0.00       0.00       1.91      17.46       1.86      19.32        0.35   207.19   0.713
  sub62                     27.10       0.00       0.00       0.85      18.60       0.86      19.46        0.53   285.36   0.718
  sub63                     27.10       0.00       0.00       3.44      14.95       3.00      17.95        0.41   217.65   0.663
  sub64                     27.10       0.00       0.00       1.66      17.02       1.51      18.52        0.44   218.20   0.684
  sub65                     27.10       0.00       0.00       1.52      18.36       1.37      19.73        0.54   251.32   0.728
  sub66                     27.10       0.00       0.00       3.85      14.43       2.38      16.81        0.78   298.06   0.620
  sub67                     27.10       0.00       0.00       0.86      19.09       0.89      19.98        0.37   240.40   0.737
  sub68                     27.10       0.00       0.00       1.46      16.85       1.43      18.28        0.50   281.58   0.675
  sub69                     27.10       0.00       0.00       1.27      18.18       1.95      20.13        0.75   346.03   0.743
  sub70                     27.10       0.00       0.00       4.04      14.54       3.50      18.04        0.52   180.23   0.666
  sub71                     27.10       0.00       0.00       0.78      16.89       0.77      17.66        0.46   227.23   0.652
  sub72                     27.10       0.00       0.00       0.74      18.23       0.71      18.94        0.26   111.57   0.699
  

  ***********************
  LID Performance Summary
  ***********************

  --------------------------------------------------------------------------------------------------------------------
                                         Total      Evap     Infil   Surface    Drain    Initial     Final  Continuity
                                        Inflow      Loss      Loss   Outflow   Outflow   Storage   Storage       Error
  Subcatchment      LID Control             mm        mm        mm        mm        mm        mm        mm           %
  --------------------------------------------------------------------------------------------------------------------
  sub1              GreenRoof            27.10      0.00      0.00      0.00      0.00      7.05     34.15       -0.00
  sub2              GreenRoof            27.10      0.00      0.00      0.00      0.00      7.05     34.15       -0.00
  sub3              GreenRoof            27.10      0.00      0.00      0.00      0.00      7.05     34.15       -0.00
  sub4              GreenRoof            27.10      0.00      0.00      0.00      0.00      7.05     34.15       -0.00
  sub5              GreenRoof            27.10      0.00      0.00      0.00      0.00      7.05     34.15       -0.00
  sub7              GreenRoof            27.10      0.00      0.00      0.00      0.00      7.05     34.15       -0.00
  sub8              GreenRoof            27.10      0.00      0.00      0.00      0.00      7.05     34.15       -0.00
  sub9              GreenRoof            27.10      0.00      0.00      0.00      0.00      7.05     34.15       -0.00
  sub10             GreenRoof            27.10      0.00      0.00      0.00      0.00      7.05     34.15       -0.00
  sub11             GreenRoof            27.10      0.00      0.00      0.00      0.00      7.05     34.15       -0.00
  sub12             GreenRoof            27.10      0.00      0.00      0.00      0.00      7.05     34.15       -0.00
  sub14             GreenRoof            27.10      0.00      0.00      0.00      0.00      7.05     34.15       -0.00
  sub15             GreenRoof            27.10      0.00      0.00      0.00      0.00      7.05     34.15       -0.00
  sub16             GreenRoof            27.10      0.00      0.00      0.00      0.00      7.05     34.15       -0.00
  sub17             GreenRoof            27.10      0.00      0.00      0.00      0.00      7.05     34.15       -0.00
  sub22             GreenRoof            27.10      0.00      0.00      0.00      0.00      7.05     34.15       -0.00
  sub23             GreenRoof            27.10      0.00      0.00      0.00      0.00      7.05     34.15       -0.00
  sub60             GreenRoof            27.10      0.00      0.00      0.00      0.00      7.05     34.15       -0.00
  sub61             GreenRoof            27.10      0.00      0.00      0.00      0.00      7.05     34.15       -0.00
  sub62             GreenRoof            27.10      0.00      0.00      0.00      0.00      7.05     34.15       -0.00
  sub63             GreenRoof            27.10      0.00      0.00      0.00      0.00      7.05     34.15       -0.00
  sub64             GreenRoof            27.10      0.00      0.00      0.00      0.00      7.05     34.15       -0.00
  sub65             GreenRoof            27.10      0.00      0.00      0.00      0.00      7.05     34.15       -0.00
  sub66             GreenRoof            27.10      0.00      0.00      0.00      0.00      7.05     34.15       -0.00
  sub67             GreenRoof            27.10      0.00      0.00      0.00      0.00      7.05     34.15       -0.00
  sub68             GreenRoof            27.10      0.00      0.00      0.00      0.00      7.05     34.15       -0.00
  sub69             GreenRoof            27.10      0.00      0.00      0.00      0.00      7.05     34.15       -0.00
  sub70             GreenRoof            27.10      0.00      0.00      0.00      0.00      7.05     34.15       -0.00
  sub71             GreenRoof            27.10      0.00      0.00      0.00      0.00      7.05     34.15       -0.00
  sub72             GreenRoof            27.10      0.00      0.00      0.00      0.00      7.05     34.15       -0.00
  
  ******************
  Node Depth Summary
  ******************
  
  ---------------------------------------------------------------------------------
                                 Average  Maximum  Maximum  Time of Max    Reported
                                   Depth    Depth      HGL   Occurrence   Max Depth
  Node                 Type       Meters   Meters   Meters  days hr:min      Meters
  ---------------------------------------------------------------------------------
  HS02004478           JUNCTION     0.13     0.67     9.90     0  01:42        0.66
  HS02004479           JUNCTION     0.21     0.82    10.02     0  01:42        0.81
  HS02004480           JUNCTION     0.17     0.78    10.02     0  01:42        0.77
  HS02004770           JUNCTION     0.18     0.63    10.46     0  01:41        0.63
  HS02004777           JUNCTION     0.21     0.64    10.44     0  01:43        0.64
  HS02004785           JUNCTION     0.11     0.47    10.37     0  01:43        0.47
  HS02004788           JUNCTION     0.07     0.38    10.28     0  01:43        0.38
  HS02004792           JUNCTION     0.11     0.83    10.35     0  01:41        0.76
  HS02004799           JUNCTION     0.23     0.92    10.13     0  01:41        0.91
  HS02004802           JUNCTION     0.23     0.81     9.94     0  01:42        0.76
  HS02004807           JUNCTION     0.20     0.80     9.97     0  01:42        0.73
  HS02004817           JUNCTION     0.48     1.08     9.93     0  01:42        1.05
  HS02004824           JUNCTION     0.07     0.50     9.91     0  01:45        0.50
  HS02004830           JUNCTION     0.08     0.44     9.91     0  01:45        0.44
  HS02004837           JUNCTION     0.06     0.33     9.91     0  01:44        0.32
  HS02004842           JUNCTION     0.34     0.65     9.92     0  01:43        0.65
  HS02004848           JUNCTION     0.04     0.30     9.90     0  01:44        0.30
  HS02004852           JUNCTION     0.04     0.32     9.83     0  01:44        0.32
  HS02004856           JUNCTION     0.10     0.37     9.79     0  01:45        0.37
  HS02004862           JUNCTION     0.05     0.32     9.70     0  01:45        0.31
  HS02004870           JUNCTION     0.04     0.28     9.57     0  01:45        0.28
  HS02004876           JUNCTION     0.08     0.37     9.40     0  01:47        0.37
  HS02004881           JUNCTION     0.03     0.25     9.28     0  01:41        0.23
  HS02004901           JUNCTION     0.19     0.64    10.46     0  01:41        0.64
  WS02001211           JUNCTION     0.61     0.83     5.66     0  01:49        0.80
  WS02001212           JUNCTION     0.35     0.59     5.65     0  01:48        0.57
  WS02001213           JUNCTION     0.56     0.91     5.67     0  01:48        0.84
  WS02003059           JUNCTION     0.62     0.93     5.62     0  01:50        0.92
  WS02003060           JUNCTION     0.34     0.66     5.59     0  01:51        0.65
  WS02003066           JUNCTION     0.20     0.43     5.98     0  01:49        0.43
  WS02003067           JUNCTION     0.50     0.90     6.22     0  01:42        0.89
  WS02003069           JUNCTION     0.38     0.74     5.32     0  01:52        0.74
  WS02003072           JUNCTION     0.44     0.78     5.15     0  01:50        0.78
  WS02003073           JUNCTION     0.26     0.49     4.56     0  01:51        0.49
  WS02004138           JUNCTION     0.13     0.14     7.39     0  00:32        0.14
  WS02004139           JUNCTION     0.55     0.74     5.65     0  01:46        0.74
  WS02004401           JUNCTION     0.67     2.31     8.31     0  01:40        1.78
  WS02004402           JUNCTION     0.69     2.08     8.04     0  01:40        1.73
  WS02004403           JUNCTION     0.70     1.94     7.87     0  01:40        1.66
  WS02004404           JUNCTION     0.77     1.93     7.78     0  01:40        1.67
  WS02004405           JUNCTION     0.76     1.85     7.70     0  01:40        1.61
  WS02004406           JUNCTION     0.76     1.77     7.60     0  01:40        1.44
  WS02004407           JUNCTION     0.21     0.72     7.03     0  01:45        0.71
  WS02004409           JUNCTION     0.45     1.25     7.02     0  01:45        1.24
  WS02004410           JUNCTION     0.46     1.22     6.94     0  01:44        1.17
  WS02004411           JUNCTION     0.47     1.26     6.94     0  01:43        1.11
  WS02004412           JUNCTION     0.48     1.21     6.85     0  01:43        1.04
  WS02004413           JUNCTION     0.62     1.44     6.91     0  01:42        1.11
  WS02006109           JUNCTION     0.82     2.64     9.26     0  01:40        2.48
  WS02006110           JUNCTION     0.78     2.76     9.34     0  01:40        2.18
  WS02006111           JUNCTION     0.31     2.68     9.39     0  01:40        1.57
  WS02006112           JUNCTION     0.86     2.68     8.56     0  01:40        2.20
  WS02006113           JUNCTION     0.39     2.73     9.62     0  01:40        1.65
  WS02006115           JUNCTION     0.58     2.36     8.50     0  01:40        1.83
  WS02006116           JUNCTION     0.66     2.35     8.39     0  01:40        1.85
  WS02006228           JUNCTION     0.85     2.98     9.63     0  01:40        2.74
  WS02006229           JUNCTION     0.85     3.07     9.77     0  01:40        2.87
  WS02006230           JUNCTION     0.80     2.65     9.39     0  01:40        2.65
  WS02006231           JUNCTION     0.54     2.21     9.34     0  01:40        2.19
  WS02006232           JUNCTION     0.63     2.18     9.22     0  01:40        2.18
  WS02006234           JUNCTION     0.51     1.96     9.12     0  01:40        1.96
  WS02006235           JUNCTION     0.52     2.00     9.16     0  01:40        2.00
  WS02006238           JUNCTION     0.55     2.15     9.29     0  02:05        2.15
  WS02006239           JUNCTION     0.49     2.03     9.24     0  01:39        2.03
  WS02006240           JUNCTION     0.45     2.10     9.39     0  01:39        2.10
  WS02006242           JUNCTION     0.48     1.55     8.82     0  01:39        1.55
  WS02006243           JUNCTION     0.39     1.48     8.90     0  01:40        1.48
  WS02006245           JUNCTION     0.38     1.56     9.04     0  01:40        1.47
  WS02006247           JUNCTION     0.38     1.47     8.97     0  01:40        1.38
  WS02006248           JUNCTION     0.34     1.10     8.69     0  01:40        1.10
  WS02006249           JUNCTION     0.36     1.09     8.69     0  01:40        1.09
  WS02006251           JUNCTION     0.38     2.13     9.80     0  01:40        2.02
  WS02006252           JUNCTION     0.23     1.50     9.74     0  00:00        1.50
  WS02006253           JUNCTION     0.42     2.75    10.39     0  01:40        1.71
  WS02006256           JUNCTION     0.79     2.35     9.28     0  00:00        2.35
  WS02006280           JUNCTION     0.19     1.58     9.85     0  01:40        1.33
  WS02006284           JUNCTION     0.45     1.72    10.12     0  01:41        1.36
  WS02006287           JUNCTION     0.19     0.96     9.92     0  01:42        0.94
  WSF200               JUNCTION     0.19     0.52     5.75     0  01:43        0.49
  YS02001580           JUNCTION     0.01     0.20     8.75     0  01:47        0.20
  YS02001583           JUNCTION     0.04     0.24     8.74     0  01:47        0.24
  YS02001586           JUNCTION     0.08     0.57     8.74     0  01:47        0.56
  YS02001590           JUNCTION     0.17     0.87     8.73     0  01:47        0.85
  YS02001593           JUNCTION     0.10     0.84     8.70     0  01:47        0.82
  YS02001596           JUNCTION     0.16     1.26     8.68     0  01:47        1.24
  YS02001600           JUNCTION     0.22     1.52     8.65     0  01:47        1.51
  YS02001601           JUNCTION     0.40     1.79     8.63     0  01:47        1.77
  YS02001602           JUNCTION     0.32     1.54     8.44     0  01:47        1.53
  YS02001605           JUNCTION     0.30     1.34     8.24     0  01:46        1.33
  YS02001607           JUNCTION     0.29     1.02     7.87     0  01:46        1.02
  YS02001610           JUNCTION     0.33     1.06     7.86     0  01:46        1.06
  YS02001613           JUNCTION     0.30     1.01     7.85     0  01:46        1.00
  YS02001616           JUNCTION     0.23     0.92     7.83     0  01:46        0.92
  YS02001619           JUNCTION     0.21     0.89     7.82     0  01:47        0.89
  YS02001622           JUNCTION     0.20     0.89     7.79     0  01:47        0.89
  YS02001625           JUNCTION     0.44     1.15     7.76     0  01:46        1.15
  YS02001629           JUNCTION     0.31     1.15     7.70     0  01:46        1.15
  YS02001633           JUNCTION     0.38     1.19     7.64     0  01:46        1.18
  YS02001641           JUNCTION     0.37     1.03     7.47     0  01:46        1.03
  YS02001644           JUNCTION     0.37     0.99     7.42     0  01:47        0.99
  YS02001647           JUNCTION     0.16     0.62     7.23     0  01:47        0.62
  YS02001649           JUNCTION     0.19     0.70     7.09     0  01:47        0.70
  YS02001652           JUNCTION     0.09     0.49     7.09     0  01:47        0.49
  YS02001655           JUNCTION     0.05     0.23     7.08     0  01:40        0.23
  YS02001658           JUNCTION     0.05     0.21     7.35     0  01:40        0.20
  YS02001661           JUNCTION     0.11     0.27     7.67     0  01:40        0.27
  YS02001664           JUNCTION     0.04     0.18     8.10     0  01:40        0.18
  YS02001745           JUNCTION     0.04     0.16     7.68     0  01:40        0.16
  YS02001748           JUNCTION     0.04     0.18     7.26     0  01:40        0.18
  YS02001751           JUNCTION     0.04     0.18     7.06     0  01:40        0.18
  YS02001754           JUNCTION     0.06     0.36     6.97     0  01:46        0.35
  YS02001757           JUNCTION     0.20     0.71     6.97     0  01:47        0.71
  YS02001759           JUNCTION     0.14     0.61     6.97     0  01:47        0.61
  YS02001762           JUNCTION     0.14     0.58     6.98     0  01:46        0.58
  YS02001765           JUNCTION     0.12     0.53     6.98     0  01:46        0.53
  YS02001767           JUNCTION     0.12     0.50     6.99     0  01:47        0.50
  YS02001770           JUNCTION     0.13     0.52     7.01     0  01:46        0.52
  YS02001774           JUNCTION     0.19     0.59     7.01     0  01:46        0.59
  YS02001779           JUNCTION     0.04     0.33     7.01     0  01:46        0.33
  YS02001783           JUNCTION     0.16     0.69     6.83     0  01:45        0.69
  YS02001784           JUNCTION     0.19     0.69     6.76     0  01:45        0.69
  YS02001786           JUNCTION     0.16     0.57     6.60     0  01:45        0.57
  YS02001788           JUNCTION     0.12     0.45     6.43     0  01:45        0.45
  YS02001790           JUNCTION     0.14     0.54     6.19     0  01:46        0.54
  YS02001791           JUNCTION     0.09     0.33     5.80     0  01:46        0.33
  YS02001793           JUNCTION     0.05     0.20     5.04     0  01:47        0.20
  YS02001882           JUNCTION     0.20     0.67     7.39     0  01:45        0.67
  YS02001884           JUNCTION     0.28     0.77     7.39     0  01:45        0.77
  YS02001887           JUNCTION     0.35     0.85     7.38     0  01:45        0.85
  YS02001890           JUNCTION     0.38     0.88     7.38     0  01:45        0.87
  YS02001895           JUNCTION     0.17     0.63     7.38     0  01:44        0.63
  YS02001898           JUNCTION     0.18     0.64     7.38     0  01:44        0.64
  YS02001901           JUNCTION     0.28     0.77     7.38     0  01:45        0.77
  YS02001904           JUNCTION     0.26     0.75     7.38     0  01:44        0.74
  YS02001907           JUNCTION     0.56     1.09     7.38     0  01:44        1.08
  YS02001910           JUNCTION     0.37     0.88     7.38     0  01:44        0.87
  YS02001915           JUNCTION     0.20     0.66     7.38     0  01:44        0.66
  YS02001918           JUNCTION     0.07     0.31     7.38     0  01:43        0.31
  YS02001920           JUNCTION     0.15     0.39     7.40     0  01:43        0.39
  YS02001923           JUNCTION     0.04     0.15     7.41     0  01:44        0.15
  YS02001926           JUNCTION     0.10     0.28     7.73     0  01:43        0.28
  YS02001929           JUNCTION     0.04     0.16     7.85     0  01:43        0.16
  YS02006553           JUNCTION     0.57     1.08     7.37     0  01:44        1.08
  YS02006556           JUNCTION     0.54     1.04     7.35     0  01:44        1.04
  YS02006558           JUNCTION     0.59     1.08     7.35     0  01:44        1.08
  YS02006561           JUNCTION     0.09     0.39     7.05     0  01:42        0.39
  YS02163301           JUNCTION     0.33     1.16     7.67     0  01:46        1.15
  YS02163601           JUNCTION     0.42     1.16     7.56     0  01:46        1.15
  YS02164001           JUNCTION     0.36     1.05     7.51     0  01:46        1.05
  YSB1154              JUNCTION     0.33     0.99    10.05     0  01:43        0.98
  YSB1171              JUNCTION     0.47     1.13    10.04     0  01:42        1.12
  YSB1174              JUNCTION     0.29     0.93    10.04     0  01:42        0.93
  YSB6556              JUNCTION     0.23     0.87    10.04     0  01:42        0.86
  CC-1                 OUTFALL      0.00     0.00     0.00     0  00:00        0.00
  CC-2                 OUTFALL      0.00     0.00     0.00     0  00:00        0.00
  JK-1                 OUTFALL      0.00     0.00     0.00     0  00:00        0.00
  JK-2                 OUTFALL      0.00     0.00     0.00     0  00:00        0.00
  WSC                  OUTFALL      0.26     0.49     1.16     0  01:51        0.49
  CC-storage           STORAGE      0.07     0.80     6.30     0  00:00        0.76
  JK-storage           STORAGE      0.05     2.99     3.79     0  00:00        0.68
  XR-storage           STORAGE      7.77     9.26     7.26     0  08:00        9.26
  
  
  *******************
  Node Inflow Summary
  *******************
  
  -------------------------------------------------------------------------------------------------
                                  Maximum  Maximum                  Lateral       Total        Flow
                                  Lateral    Total  Time of Max      Inflow      Inflow     Balance
                                   Inflow   Inflow   Occurrence      Volume      Volume       Error
  Node                 Type           LPS      LPS  days hr:min    10^6 ltr    10^6 ltr     Percent
  -------------------------------------------------------------------------------------------------
  HS02004478           JUNCTION      0.00  1742.71     0  01:40           0        4.27      -0.013
  HS02004479           JUNCTION      0.00   232.65     0  01:39           0       0.414       0.172
  HS02004480           JUNCTION      0.00  1511.94     0  01:41           0         3.2       0.079
  HS02004770           JUNCTION    435.80   537.64     0  01:40       0.887        1.08       0.282
  HS02004777           JUNCTION      0.03   533.83     0  01:41    0.000864        1.08       0.483
  HS02004785           JUNCTION      0.15   532.72     0  01:41     0.00432        1.08       0.045
  HS02004788           JUNCTION    154.67   684.78     0  01:41       0.362        1.44       0.026
  HS02004792           JUNCTION    543.19  1218.44     0  01:41         1.2        2.63       0.013
  HS02004799           JUNCTION     98.29  1291.01     0  01:41       0.169         2.8       0.088
  HS02004802           JUNCTION      0.00   319.18     0  01:54           0        1.09       0.368
  HS02004807           JUNCTION    129.44   306.42     0  01:55       0.217        1.09       0.377
  HS02004817           JUNCTION      0.60   250.78     0  01:55      0.0173       0.889       1.907
  HS02004824           JUNCTION    159.18   238.95     0  01:55       0.446       0.894       0.060
  HS02004830           JUNCTION      0.15   123.22     0  01:38     0.00432       0.472       0.262
  HS02004837           JUNCTION    126.19   239.44     0  01:43       0.405       0.549       0.146
  HS02004842           JUNCTION      0.00   238.36     0  01:43           0       0.225       6.135
  HS02004848           JUNCTION    143.83   359.03     0  01:43       0.403       0.493       0.007
  HS02004852           JUNCTION      0.00   350.10     0  01:44           0       0.371       0.014
  HS02004856           JUNCTION     50.46   383.56     0  01:44      0.0865       0.458       0.311
  HS02004862           JUNCTION     68.85   448.54     0  01:45       0.178       0.634       0.026
  HS02004870           JUNCTION     69.34   505.72     0  01:45       0.119       0.752       0.012
  HS02004876           JUNCTION     73.21   573.55     0  01:45       0.145       0.897       0.057
  HS02004881           JUNCTION     39.19   590.96     0  01:46      0.0643       0.961       0.045
  HS02004901           JUNCTION    104.90   104.90     0  01:40       0.193       0.193       0.909
  WS02001211           JUNCTION      7.35   345.29     0  01:47       0.212        5.45       0.609
  WS02001212           JUNCTION      0.00   389.22     0  01:44           0        5.42       0.273
  WS02001213           JUNCTION      0.00   352.16     0  01:44           0        5.41       0.341
  WS02003059           JUNCTION      0.00   401.14     0  01:43           0        5.42       0.593
  WS02003060           JUNCTION     16.53  1425.61     0  01:51       0.476        11.3       0.128
  WS02003066           JUNCTION      0.00  1178.12     0  01:46           0        5.48       0.028
  WS02003067           JUNCTION      0.00  1173.01     0  01:46           0        5.48       0.078
  WS02003069           JUNCTION      0.32  1396.10     0  01:51     0.00922        11.3       0.138
  WS02003072           JUNCTION      0.00  1388.59     0  01:52           0        11.3       0.186
  WS02003073           JUNCTION      1.82  1392.15     0  01:50      0.0524        11.3       0.189
  WS02004138           JUNCTION      0.00   380.00     0  00:00           0        5.25       0.053
  WS02004139           JUNCTION      0.32   264.50     0  01:46     0.00924        5.26       0.508
  WS02004401           JUNCTION      0.00  1205.43     0  01:43           0        5.59       0.191
  WS02004402           JUNCTION      0.00  1207.93     0  01:43           0        5.58       0.192
  WS02004403           JUNCTION      0.00  1210.56     0  01:42           0        5.57       0.188
  WS02004404           JUNCTION      0.16  1213.74     0  01:42     0.00467        5.56       0.164
  WS02004405           JUNCTION      0.04  1217.83     0  01:42      0.0011        5.55       0.221
  WS02004406           JUNCTION      0.00  1221.18     0  01:42           0        5.54       0.386
  WS02004407           JUNCTION      0.00  1222.61     0  01:42           0        5.52       0.025
  WS02004409           JUNCTION      0.00  1251.25     0  01:41           0        5.52       0.056
  WS02004410           JUNCTION      0.00  1225.95     0  01:41           0        5.51       0.087
  WS02004411           JUNCTION      0.00  1184.17     0  01:42           0        5.51       0.107
  WS02004412           JUNCTION      0.00  1171.61     0  01:46           0         5.5       0.141
  WS02004413           JUNCTION      0.00  1172.51     0  01:46           0         5.5       0.260
  WS02006109           JUNCTION      1.23  1212.53     0  01:40      0.0354        5.46       0.181
  WS02006110           JUNCTION      0.00  1211.35     0  01:40           0        5.45       0.137
  WS02006111           JUNCTION      0.00  1247.05     0  01:40           0        5.44      -0.002
  WS02006112           JUNCTION     91.09  1204.61     0  01:42       0.173        5.61       0.364
  WS02006113           JUNCTION      0.00  1211.48     0  01:40           0        5.44       0.047
  WS02006115           JUNCTION      0.00  1202.89     0  01:42           0        5.59       0.136
  WS02006116           JUNCTION      0.00  1202.90     0  01:43           0        5.59      -0.043
  WS02006228           JUNCTION      0.00  1212.27     0  01:40           0        5.43       0.069
  WS02006229           JUNCTION      0.00  1646.32     0  01:43           0        6.02       0.129
  WS02006230           JUNCTION     10.28   547.29     0  01:44       0.296        2.34       0.341
  WS02006231           JUNCTION      0.00   509.92     0  01:38           0        1.99      -0.129
  WS02006232           JUNCTION      0.00   483.23     0  01:39           0        1.97       0.288
  WS02006234           JUNCTION      0.00   482.58     0  01:39           0        1.94      -0.296
  WS02006235           JUNCTION      0.00   487.74     0  01:39           0        1.95       0.230
  WS02006238           JUNCTION      0.00   496.76     0  01:39           0        1.81      -0.435
  WS02006239           JUNCTION      0.00   503.50     0  01:39           0        1.74      -0.413
  WS02006240           JUNCTION      0.00   664.17     0  01:39           0        1.71      -0.060
  WS02006242           JUNCTION      0.00   731.17     0  01:39           0         1.7      -0.042
  WS02006243           JUNCTION      0.00   644.04     0  01:40           0        1.58      -0.336
  WS02006245           JUNCTION      0.00   453.03     0  01:40           0        1.58       0.860
  WS02006247           JUNCTION      0.00   621.97     0  01:40           0        1.58      -0.003
  WS02006248           JUNCTION      0.00   666.70     0  01:40           0        1.62      -0.097
  WS02006249           JUNCTION      0.00  1008.42     0  01:42           0        2.53       0.273
  WS02006251           JUNCTION      0.08   974.63     0  01:47     0.00222        2.56      -0.033
  WS02006252           JUNCTION      0.00   400.00     0  00:00           0        1.53      -0.347
  WS02006253           JUNCTION     13.56   574.16     0  01:47      0.0202        1.03      -0.062
  WS02006256           JUNCTION      0.00   300.00     0  00:00           0       0.329      -5.942
  WS02006280           JUNCTION      0.00  1674.81     0  01:40           0        4.27      -0.033
  WS02006284           JUNCTION      0.10  1717.94     0  01:40     0.00275        4.27       0.049
  WS02006287           JUNCTION      0.00  1731.28     0  01:40           0        4.27       0.058
  WSF200               JUNCTION      0.00  1175.99     0  01:46           0        5.48       0.010
  YS02001580           JUNCTION      0.00    15.21     0  01:44           0     0.00137       2.874
  YS02001583           JUNCTION      0.00    25.02     0  01:44           0     0.00487      -5.776
  YS02001586           JUNCTION    180.23   186.80     0  01:50       0.521       0.525       0.135
  YS02001590           JUNCTION      0.00   196.17     0  01:51           0       0.521      -0.011
  YS02001593           JUNCTION      0.00   196.23     0  01:51           0       0.521       0.027
  YS02001596           JUNCTION      0.00   196.53     0  01:51           0       0.521      -0.019
  YS02001600           JUNCTION      0.00   196.56     0  01:51           0       0.521       0.032
  YS02001601           JUNCTION    346.03   485.61     0  01:43       0.745        1.27       0.069
  YS02001602           JUNCTION      0.00   485.20     0  01:43           0        1.26       0.035
  YS02001605           JUNCTION      0.00   486.44     0  01:43           0        1.26       0.043
  YS02001607           JUNCTION      0.00   487.52     0  01:43           0        1.26       0.135
  YS02001610           JUNCTION      0.00   475.51     0  01:44           0        1.26       0.177
  YS02001613           JUNCTION      0.00   473.95     0  01:46           0        1.26       0.126
  YS02001616           JUNCTION      0.00   476.04     0  01:48           0        1.26       0.032
  YS02001619           JUNCTION    298.06   763.16     0  01:46       0.784        2.04      -0.001
  YS02001622           JUNCTION      0.00   763.07     0  01:47           0        2.04       0.005
  YS02001625           JUNCTION      0.00   765.05     0  01:48           0        2.04       0.473
  YS02001629           JUNCTION      0.00   765.10     0  01:48           0        2.03       0.027
  YS02001633           JUNCTION    251.52   988.50     0  01:47       0.549        2.58       0.132
  YS02001641           JUNCTION      0.00   987.91     0  01:47           0        2.59       0.108
  YS02001644           JUNCTION    218.24  1175.56     0  01:47       0.446        3.02       0.108
  YS02001647           JUNCTION      0.00  1175.19     0  01:47           0        3.01       0.014
  YS02001649           JUNCTION      0.00  1348.05     0  01:46           0        3.42       0.010
  YS02001652           JUNCTION      0.00   223.37     0  01:41           0        0.41      -0.402
  YS02001655           JUNCTION      0.15   217.47     0  01:40     0.00443       0.412       0.320
  YS02001658           JUNCTION      0.00   217.32     0  01:40           0       0.407      -0.000
  YS02001661           JUNCTION      0.00   217.52     0  01:40           0       0.407       0.086
  YS02001664           JUNCTION    217.65   217.65     0  01:40       0.407       0.407      -0.015
  YS02001745           JUNCTION    146.44   146.44     0  01:40       0.246       0.246      -0.004
  YS02001748           JUNCTION      0.04   146.33     0  01:40      0.0013       0.248      -0.002
  YS02001751           JUNCTION      0.01   146.30     0  01:40    0.000317       0.248       0.333
  YS02001754           JUNCTION      0.26   146.53     0  01:40     0.00749       0.255      -0.411
  YS02001757           JUNCTION      0.00  1849.58     0  01:46           0        4.59       0.017
  YS02001759           JUNCTION    207.23   429.40     0  01:41       0.356       0.907      -0.011
  YS02001762           JUNCTION      0.00   242.39     0  01:41           0       0.552       0.031
  YS02001765           JUNCTION      0.00   255.75     0  01:42           0       0.552       0.030
  YS02001767           JUNCTION      0.54   267.99     0  01:41      0.0154       0.552       0.047
  YS02001770           JUNCTION    285.51   285.51     0  01:41       0.537       0.556      -0.016
  YS02001774           JUNCTION      0.00    36.05     0  01:37           0      0.0243       5.099
  YS02001779           JUNCTION      0.01    13.40     0  01:37    0.000144     0.00521       0.160
  YS02001783           JUNCTION      0.00   757.79     0  01:45           0        1.65       0.015
  YS02001784           JUNCTION      1.06   759.54     0  01:45      0.0305        1.68       0.030
  YS02001786           JUNCTION      0.06   757.65     0  01:45     0.00162        1.68       0.039
  YS02001788           JUNCTION      0.07   757.44     0  01:45     0.00204        1.68       0.019
  YS02001790           JUNCTION      0.15   758.20     0  01:45     0.00446        1.69       0.024
  YS02001791           JUNCTION      0.00   783.93     0  01:45           0        1.68       0.013
  YS02001793           JUNCTION      0.00   760.93     0  01:46           0        1.68      -0.084
  YS02001882           JUNCTION      0.00    20.52     0  01:39           0      0.0105       6.464
  YS02001884           JUNCTION      0.00    60.43     0  01:38           0      0.0369       7.248
  YS02001887           JUNCTION    240.85   240.85     0  01:39       0.384       0.408       1.101
  YS02001890           JUNCTION      0.00   203.64     0  01:42           0       0.377       1.375
  YS02001895           JUNCTION      0.00   201.17     0  01:43           0       0.372       0.436
  YS02001898           JUNCTION      0.00   192.26     0  01:43           0        0.37       0.095
  YS02001901           JUNCTION      0.00   191.00     0  01:47           0       0.374       0.877
  YS02001904           JUNCTION      0.00   196.56     0  01:47           0       0.386       0.752
  YS02001907           JUNCTION      0.00   524.61     0  01:47           0        1.19       1.534
  YS02001910           JUNCTION      0.00   352.98     0  01:44           0       0.805       0.897
  YS02001915           JUNCTION    227.25   338.60     0  01:44       0.462       0.806       0.205
  YS02001918           JUNCTION      0.00   117.97     0  01:47           0       0.344       0.089
  YS02001920           JUNCTION      2.87   114.24     0  01:44      0.0827       0.345       0.303
  YS02001923           JUNCTION      0.04   111.37     0  01:44     0.00109       0.263       0.001
  YS02001926           JUNCTION      0.05   111.56     0  01:43      0.0015       0.262       0.087
  YS02001929           JUNCTION    111.57   111.57     0  01:43        0.26        0.26      -0.014
  YS02006553           JUNCTION      0.00   524.95     0  01:47           0        1.18       1.007
  YS02006556           JUNCTION      0.00   525.20     0  01:47           0        1.19       0.694
  YS02006558           JUNCTION    282.46   759.24     0  01:44       0.528        1.69       0.200
  YS02006561           JUNCTION      0.00   756.90     0  01:44           0        1.65       0.004
  YS02163301           JUNCTION      0.00   770.30     0  01:48           0        2.04       0.075
  YS02163601           JUNCTION      0.11   987.87     0  01:47     0.00317        2.58       0.188
  YS02164001           JUNCTION      0.00   987.98     0  01:47           0        2.58       0.093
  YSB1154              JUNCTION    122.65   122.65     0  01:41       0.234       0.235       0.610
  YSB1171              JUNCTION      0.00   232.70     0  01:39           0       0.413       1.544
  YSB1174              JUNCTION    110.64   110.64     0  01:39       0.171       0.172       0.741
  YSB6556              JUNCTION      0.00   122.78     0  01:40           0       0.235       0.520
  CC-1                 OUTFALL       0.00   683.00     0  00:00           0        2.59       0.000
  CC-2                 OUTFALL       0.00   683.00     0  00:00           0        2.59       0.000
  JK-1                 OUTFALL       0.00  1000.00     0  00:00           0        1.03       0.000
  JK-2                 OUTFALL       0.00  1000.00     0  00:00           0        1.03       0.000
  WSC                  OUTFALL       0.00  1390.02     0  01:51           0        11.3       0.000
  CC-storage           STORAGE       0.00  1845.97     0  01:47           0        6.81      -0.621
  JK-storage           STORAGE       0.00   841.52     0  01:45           0        1.84     -22.643
  XR-storage           STORAGE     200.00   200.00     0  00:00        5.76        6.36       0.001
  
  
  **********************
  Node Surcharge Summary
  **********************
  
  Surcharging occurs when water rises above the top of the highest conduit.
  ---------------------------------------------------------------------
                                               Max. Height   Min. Depth
                                   Hours       Above Crown    Below Rim
  Node                 Type      Surcharged         Meters       Meters
  ---------------------------------------------------------------------
  HS02004479           JUNCTION        0.03          0.019        1.031
  HS02004480           JUNCTION        0.13          0.068        1.032
  HS02004792           JUNCTION        0.08          0.130        0.770
  HS02004799           JUNCTION        0.23          0.221        0.839
  HS02004802           JUNCTION        0.12          0.096        1.114
  HS02004807           JUNCTION        0.09          0.097        1.123
  HS02004817           JUNCTION        0.57          0.383        1.357
  WS02004401           JUNCTION        0.77          1.308        0.352
  WS02004402           JUNCTION        0.82          1.083        0.657
  WS02004403           JUNCTION        0.83          0.941        1.089
  WS02004404           JUNCTION        0.99          0.932        1.848
  WS02004405           JUNCTION        0.98          0.846        1.954
  WS02004406           JUNCTION        0.95          0.767        1.683
  WS02004409           JUNCTION        0.32          0.247        2.113
  WS02004410           JUNCTION        0.29          0.216        2.324
  WS02004411           JUNCTION        0.25          0.255        2.275
  WS02004412           JUNCTION        0.18          0.211        2.099
  WS02004413           JUNCTION        0.55          0.442        1.758
  WS02006109           JUNCTION        1.39          1.820        0.000
  WS02006110           JUNCTION        1.08          1.850        0.000
  WS02006111           JUNCTION        0.53          1.870        0.000
  WS02006112           JUNCTION        1.18          1.680        0.000
  WS02006113           JUNCTION        0.54          1.930        0.000
  WS02006115           JUNCTION        0.72          1.347        0.903
  WS02006116           JUNCTION        0.73          1.295        0.995
  WS02006228           JUNCTION        1.37          2.151        0.049
  WS02006229           JUNCTION        0.30          0.893        0.177
  WS02006230           JUNCTION        0.91          1.570        0.000
  WS02006231           JUNCTION        0.91          1.504        0.026
  WS02006232           JUNCTION        1.23          1.480        0.000
  WS02006234           JUNCTION        0.86          1.240        0.000
  WS02006235           JUNCTION        0.97          1.290        0.000
  WS02006238           JUNCTION        1.05          1.430        0.000
  WS02006239           JUNCTION        0.92          1.290        0.000
  WS02006240           JUNCTION        0.89          1.390        0.000
  WS02006242           JUNCTION        1.04          0.820        0.000
  WS02006243           JUNCTION        0.87          0.770        0.000
  WS02006245           JUNCTION        0.85          0.850        0.000
  WS02006247           JUNCTION        0.88          0.760        0.000
  WS02006248           JUNCTION        0.79          0.380        0.000
  WS02006249           JUNCTION        0.83          0.390        0.000
  WS02006251           JUNCTION        0.51          1.098        0.082
  WS02006252           JUNCTION        1.11          1.100        0.000
  WS02006253           JUNCTION        0.54          1.709        0.771
  WS02006256           JUNCTION        5.64          2.050        0.000
  WS02006280           JUNCTION        0.21          0.530        0.250
  WS02006284           JUNCTION        0.14          0.442        0.358
  YS02001590           JUNCTION        0.16          0.219        0.531
  YS02001593           JUNCTION        0.16          0.216        0.624
  YS02001596           JUNCTION        0.29          0.527        0.543
  YS02001600           JUNCTION        0.40          0.836        0.354
  YS02001601           JUNCTION        0.69          1.167        0.273
  YS02001602           JUNCTION        0.59          0.943        0.327
  YS02001605           JUNCTION        0.55          0.741        0.439
  YS02001607           JUNCTION        0.06          0.024        0.656
  YS02001610           JUNCTION        0.11          0.062        0.618
  YS02001613           JUNCTION        0.02          0.006        0.694
  YS02001625           JUNCTION        0.22          0.152        0.628
  YS02001633           JUNCTION        0.23          0.167        0.893
  YS02001641           JUNCTION        0.10          0.031        1.069
  YS02001907           JUNCTION        0.18          0.078        0.872
  YS02006553           JUNCTION        0.20          0.083        1.107
  YS02006556           JUNCTION        0.01          0.004        1.346
  YS02163301           JUNCTION        0.21          0.158        0.872
  YS02163601           JUNCTION        0.26          0.158        0.922
  YS02164001           JUNCTION        0.12          0.049        1.051
  YSB1154              JUNCTION        0.33          0.291        1.109
  YSB1171              JUNCTION        0.33          0.282        0.818
  YSB1174              JUNCTION        0.26          0.227        1.023
  YSB6556              JUNCTION        0.20          0.171        0.929
  
  
  *********************
  Node Flooding Summary
  *********************
  
  Flooding refers to all water that overflows a node, whether it ponds or not.
  --------------------------------------------------------------------------
                                                             Total   Maximum
                                 Maximum   Time of Max       Flood    Ponded
                        Hours       Rate    Occurrence      Volume     Depth
  Node                 Flooded       LPS   days hr:min    10^6 ltr    Meters
  --------------------------------------------------------------------------
  WS02006109              0.01     59.35      0  01:40       0.000     0.000
  WS02006110              0.01     33.11      0  01:40       0.000     0.000
  WS02006111              0.01    330.24      0  01:40       0.001     0.000
  WS02006112              0.01    153.54      0  01:40       0.001     0.000
  WS02006113              0.01    156.11      0  01:40       0.000     0.000
  WS02006230              0.15     94.46      0  01:44       0.040     0.000
  WS02006232              0.05      7.10      0  01:40       0.000     0.000
  WS02006234              0.20     74.65      0  01:48       0.035     0.000
  WS02006235              0.01     41.44      0  01:40       0.000     0.000
  WS02006238              0.01     14.60      0  02:05       0.000     0.000
  WS02006239              0.01    166.99      0  01:39       0.000     0.000
  WS02006240              0.01    491.35      0  01:39       0.001     0.000
  WS02006242              0.32    586.42      0  01:39       0.104     0.000
  WS02006243              0.01    560.36      0  01:40       0.002     0.000
  WS02006245              0.01    373.11      0  01:40       0.001     0.000
  WS02006247              0.01    576.45      0  01:40       0.002     0.000
  WS02006248              0.49    616.93      0  01:40       0.349     0.000
  WS02006249              0.58   1008.37      0  01:42       1.231     0.000
  WS02006252              0.01    267.10      0  02:28       0.002     0.000
  WS02006256              0.30    298.56      0  01:43       0.204     0.000
  
  
  **********************
  Storage Volume Summary
  **********************
  
  --------------------------------------------------------------------------------------------------
                         Average     Avg  Evap Exfil       Maximum     Max    Time of Max    Maximum
                          Volume    Pcnt  Pcnt  Pcnt        Volume    Pcnt     Occurrence    Outflow
  Storage Unit           1000 m3    Full  Loss  Loss       1000 m3    Full    days hr:min        LPS
  --------------------------------------------------------------------------------------------------
  CC-storage               0.193       3     0     0         2.229      35       0  00:00    1783.53
  JK-storage               0.003       1     0     0         0.150      52       0  00:00    2300.00
  XR-storage               0.932      65     0     0         1.111      77       0  08:00     380.00
  
  
  ***********************
  Outfall Loading Summary
  ***********************
  
  -----------------------------------------------------------
                         Flow       Avg       Max       Total
                         Freq      Flow      Flow      Volume
  Outfall Node           Pcnt       LPS       LPS    10^6 ltr
  -----------------------------------------------------------
  CC-1                  24.28    683.00    683.00       2.593
  CC-2                  24.28    683.00    683.00       2.593
  JK-1                   6.43    978.36   1000.00       1.028
  JK-2                   6.43    978.36   1000.00       1.028
  WSC                   99.94    505.51   1390.02      11.283
  -----------------------------------------------------------
  System                32.27   3828.23   1390.02      18.524
  
  
  ********************
  Link Flow Summary
  ********************
  
  -----------------------------------------------------------------------------
                                 Maximum  Time of Max   Maximum    Max/    Max/
                                  |Flow|   Occurrence   |Veloc|    Full    Full
  Link                 Type          LPS  days hr:min     m/sec    Flow   Depth
  -----------------------------------------------------------------------------
  1                    CONDUIT   1390.02     0  01:51      3.63    0.48    0.49
  HS02004478WS02006287 CONDUIT   1731.28     0  01:40      2.84    0.48    0.86
  HS02004479HS02004480 CONDUIT    251.03     0  01:41      0.36    0.24    1.00
  HS02004480HS02004478 CONDUIT   1508.21     0  01:41      2.30    6.35    0.97
  HS02004770HS02004777 CONDUIT    533.80     0  01:41      0.85    0.98    0.90
  HS02004777HS02004785 CONDUIT    532.57     0  01:41      0.98    0.66    0.79
  HS02004785HS02004788 CONDUIT    530.65     0  01:41      1.37    4.00    0.61
  HS02004788HS02004792 CONDUIT    676.52     0  01:41      1.46    0.45    0.77
  HS02004792HS02004799 CONDUIT   1194.86     0  01:41      1.73    0.73    1.00
  HS02004799HS02004480 CONDUIT   1292.09     0  01:41      1.85    1.63    1.00
  HS02004802HS02004478 CONDUIT    332.12     0  01:54      0.66    0.29    0.98
  HS02004807HS02004802 CONDUIT    319.18     0  01:54      0.59    0.61    1.00
  HS02004817HS02004807 CONDUIT    250.88     0  01:55      0.41    0.15    1.00
  HS02004817HS02004824 CONDUIT    250.18     0  01:55      0.50    0.11    0.86
  HS02004824HS02004830 CONDUIT    116.22     0  01:43      0.65    0.15    0.67
  HS02004830HS02004837 CONDUIT    123.07     0  01:38      0.80    0.12    0.54
  HS02004837HS02004842 CONDUIT    238.36     0  01:43      0.50    0.14    0.69
  HS02004842HS02004848 CONDUIT    215.28     0  01:43      0.46    0.13    0.68
  HS02004848HS02004852 CONDUIT    350.10     0  01:44      1.14    0.39    0.44
  HS02004852HS02004856 CONDUIT    341.48     0  01:44      1.00    0.39    0.49
  HS02004856HS02004862 CONDUIT    381.53     0  01:45      1.24    0.38    0.44
  HS02004862HS02004870 CONDUIT    450.70     0  01:45      1.51    0.49    0.43
  HS02004870HS02004876 CONDUIT    508.51     0  01:45      1.60    0.34    0.45
  HS02004876HS02004881 CONDUIT    562.29     0  01:46      2.23    5.98    0.42
  HS02004881HS02006253 CONDUIT    566.34     0  01:47      2.83    0.11    0.68
  HS02004901HS02004770 CONDUIT    102.29     0  01:41      0.16    0.38    0.90
  WS02001211WS02001212 CONDUIT    288.17     0  01:49      0.54    0.22    0.69
  WS02001212WS02001213 CONDUIT    295.07     0  01:50      1.04    0.46    0.56
  WS02001213WS02003059 CONDUIT    265.93     0  01:48      0.47    0.44    0.88
  WS02003059WS02003060 CONDUIT    313.25     0  01:44      0.66    0.20    0.79
  WS02003060WS02003069 CONDUIT   1395.78     0  01:51      2.16    0.55    0.58
  WS02003066WSF200     CONDUIT   1175.99     0  01:46      3.57    0.20    0.37
  WS02003067WS02003066 CONDUIT   1178.12     0  01:46      1.91    0.38    0.55
  WS02003069WS02003072 CONDUIT   1388.59     0  01:52      1.85    0.67    0.63
  WS02003072WS02003073 CONDUIT   1390.33     0  01:50      1.99    3.00    0.59
  WS02004138WS02004139 CONDUIT    190.00     0  00:32      2.16    0.04    0.42
  WS02004139WS02001211 CONDUIT    337.95     0  01:47      0.54    0.43    0.60
  WS02004401WS02004402 CONDUIT   1207.93     0  01:43      1.54    1.45    1.00
  WS02004402WS02004403 CONDUIT   1210.56     0  01:42      1.54    1.74    1.00
  WS02004403WS02004404 CONDUIT   1213.58     0  01:42      1.55    0.88    1.00
  WS02004404WS02004405 CONDUIT   1217.80     0  01:42      1.55   11.93    1.00
  WS02004405WS02004406 CONDUIT   1221.18     0  01:42      1.55    2.41    1.00
  WS02004406WS02004407 CONDUIT   1222.61     0  01:42      1.98    0.55    0.86
  WS02004407WS02004409 CONDUIT   1251.25     0  01:41      2.23    0.44    0.86
  WS02004409WS02004410 CONDUIT   1225.95     0  01:41      1.71    1.59    1.00
  WS02004410WS02004411 CONDUIT   1184.17     0  01:42      1.67    1.62    1.00
  WS02004411WS02004412 CONDUIT   1171.61     0  01:46      1.64    1.66    1.00
  WS02004412WS02004413 CONDUIT   1172.51     0  01:46      1.49    0.79    1.00
  WS02004413WS02003067 CONDUIT   1173.01     0  01:46      1.85    0.50    0.75
  WS02006109WS02006110 CONDUIT   1211.35     0  01:40      2.41    2.33    1.00
  WS02006110WS02006113 CONDUIT   1211.48     0  01:40      2.41    1.10    1.00
  WS02006111WS02006112 CONDUIT   1119.48     0  01:42      2.23    0.53    1.00
  WS02006112WS02006115 CONDUIT   1202.89     0  01:42      1.53    0.71    1.00
  WS02006113WS02006111 CONDUIT   1247.05     0  01:40      2.71    1.49    1.00
  WS02006115WS02006116 CONDUIT   1202.90     0  01:43      1.53    1.54    1.00
  WS02006116WS02004401 CONDUIT   1205.43     0  01:43      1.53    1.66    1.00
  WS02006228WS02006109 CONDUIT   1211.30     0  01:40      2.41    5.29    1.00
  WS02006229WS02006228 CONDUIT   1212.27     0  01:40      2.41    4.02    1.00
  WS02006230WS02006229 CONDUIT    537.01     0  01:44      1.40   11.95    1.00
  WS02006231WS02006230 CONDUIT    509.92     0  01:38      1.38    7.73    1.00
  WS02006232WS02006231 CONDUIT    483.23     0  01:39      1.26    1.01    1.00
  WS02006234WS02006232 CONDUIT    482.58     0  01:39      1.39    0.98    1.00
  WS02006235WS02006234 CONDUIT    487.74     0  01:39      1.28    5.15    1.00
  WS02006238WS02006235 CONDUIT    496.76     0  01:39      1.45    1.11    1.00
  WS02006239WS02006238 CONDUIT    503.50     0  01:39      1.32    1.61    1.00
  WS02006240WS02006239 CONDUIT    528.75     0  01:39      1.46    1.66    1.00
  WS02006242WS02006240 CONDUIT    497.20     0  01:39      1.31    1.97    1.00
  WS02006243WS02006242 CONDUIT    403.69     0  01:40      1.33    0.86    1.00
  WS02006245WS02006243 CONDUIT    420.96     0  02:46      1.38    1.25    1.00
  WS02006247WS02006245 CONDUIT    430.16     0  02:46      1.40    3.41    1.00
  WS02006248WS02006247 CONDUIT    431.45     0  02:46      1.41    0.94    1.00
  WS02006249WS02006248 CONDUIT    464.48     0  02:30      1.39    2.54    1.00
  WS02006251WS02006249 CONDUIT    974.17     0  01:47      2.53    2.81    1.00
  WS02006252WS02006251 CONDUIT    418.08     0  02:06      4.94    1.53    1.00
  WS02006253WS02006251 CONDUIT    574.27     0  01:47      1.49    1.72    1.00
  WS02006256WS02006235 CONDUIT    288.93     0  00:00      4.23    3.06    1.00
  WS02006280WS02006229 CONDUIT   1646.32     0  01:43      5.10    0.35    1.00
  WS02006284WS02006280 CONDUIT   1674.81     0  01:40      3.23    0.70    1.00
  WS02006287WS02006284 CONDUIT   1717.85     0  01:40      3.02    0.80    0.98
  WSF200WS02003060     CONDUIT   1257.65     0  01:43      2.91    0.28    0.48
  YS02001580YS02001583 CONDUIT     15.21     0  01:44      0.36    0.06    0.37
  YS02001583YS02001586 CONDUIT     25.02     0  01:44      0.20    0.04    0.63
  YS02001586YS02001590 CONDUIT    196.17     0  01:51      1.27    0.34    0.97
  YS02001590YS02001593 CONDUIT    196.23     0  01:51      1.01    1.23    1.00
  YS02001593YS02001596 CONDUIT    196.53     0  01:51      1.67    0.31    1.00
  YS02001596YS02001600 CONDUIT    196.56     0  01:51      1.16    0.38    1.00
  YS02001600YS02001601 CONDUIT    196.57     0  01:51      0.70    0.34    1.00
  YS02001601YS02001602 CONDUIT    485.20     0  01:43      1.72    1.75    1.00
  YS02001602YS02001605 CONDUIT    486.44     0  01:43      1.72   10.29    1.00
  YS02001605YS02001607 CONDUIT    487.52     0  01:43      1.72    2.67    1.00
  YS02001607YS02001610 CONDUIT    475.51     0  01:44      0.70    0.45    1.00
  YS02001610YS02001613 CONDUIT    473.95     0  01:46      0.68    0.55    1.00
  YS02001613YS02001616 CONDUIT    476.04     0  01:48      0.72    0.41    0.96
  YS02001616YS02001619 CONDUIT    477.31     0  01:47      0.76    0.83    0.91
  YS02001619YS02001622 CONDUIT    763.07     0  01:47      1.41    1.12    0.89
  YS02001622YS02001625 CONDUIT    765.05     0  01:48      1.00    0.41    0.94
  YS02001625YS02001629 CONDUIT    765.10     0  01:48      1.05    0.36    0.88
  YS02001629YS02163301 CONDUIT    770.30     0  01:48      0.98    0.95    1.00
  YS02001633YS02163601 CONDUIT    987.76     0  01:47      1.26    1.04    1.00
  YS02001641YS02001644 CONDUIT    987.87     0  01:47      1.26    3.19    0.99
  YS02001644YS02001647 CONDUIT   1175.19     0  01:47      1.74    0.69    0.80
  YS02001647YS02001649 CONDUIT   1176.78     0  01:47      2.15    0.62    0.66
  YS02001649YS02001757 CONDUIT   1347.76     0  01:47      2.30    0.82    0.70
  YS02001652YS02001649 CONDUIT    206.28     0  01:39      1.03    0.10    0.60
  YS02001655YS02001652 CONDUIT    223.37     0  01:41      1.69    0.11    0.33
  YS02001658YS02001655 CONDUIT    217.32     0  01:40      1.78    0.09    0.22
  YS02001661YS02001658 CONDUIT    217.32     0  01:40      1.93    0.09    0.20
  YS02001664YS02001661 CONDUIT    217.52     0  01:40      1.68    0.07    0.22
  YS02001745YS02001748 CONDUIT    146.29     0  01:40      1.79    0.06    0.16
  YS02001748YS02001751 CONDUIT    146.29     0  01:40      1.50    0.07    0.18
  YS02001751YS02001754 CONDUIT    146.27     0  01:40      1.53    0.07    0.23
  YS02001754YS02001757 CONDUIT    145.40     0  01:39      0.66    0.06    0.53
  YS02001757CaochengTiaoxuchi CONDUIT   1845.97     0  01:47      6.38    0.80    0.40
  YS02001759YS02001757 CONDUIT    412.44     0  01:41      1.05    0.29    0.66
  YS02001762YS02001759 CONDUIT    238.57     0  01:46      0.61    0.27    0.59
  YS02001765YS02001762 CONDUIT    242.39     0  01:41      0.74    0.23    0.56
  YS02001767YS02001765 CONDUIT    255.75     0  01:42      0.88    0.32    0.52
  YS02001770YS02001767 CONDUIT    267.46     0  01:41      0.86    1.06    0.51
  YS02001774YS02001770 CONDUIT     36.05     0  01:37      0.21    0.02    0.54
  YS02001779YS02001774 CONDUIT     13.39     0  01:37      0.08    0.01    0.46
  YS02001783YS02001784 CONDUIT    758.48     0  01:45      1.64    1.05    0.86
  YS02001784YS02001785 CONDUIT    757.59     0  01:45      1.78    1.76    0.79
  YS02001786YS02001788 CONDUIT    757.37     0  01:45      2.22    1.46    0.64
  YS02001788YS02001790 CONDUIT    758.04     0  01:45      2.31    0.56    0.62
  YS02001790YS02001791 CONDUIT    783.93     0  01:45      2.83    0.85    0.54
  YS02001791YS02001793 CONDUIT    760.93     0  01:46      5.61    0.33    0.33
  YS02001793JiankangQianchi CONDUIT    841.52     0  01:45     19.26    0.07    0.50
  YS02001882YS02001884 CONDUIT     20.52     0  01:39      0.13    0.02    0.69
  YS02001884YS02001887 CONDUIT     60.43     0  01:38      0.14    0.08    0.78
  YS02001887YS02001890 CONDUIT    203.64     0  01:42      0.34    0.35    0.84
  YS02001890YS02001895 CONDUIT    201.17     0  01:43      0.33    0.09    0.75
  YS02001895YS02001898 CONDUIT    192.26     0  01:43      0.50    0.33    0.62
  YS02001898YS02001901 CONDUIT    191.00     0  01:47      0.33    0.12    0.71
  YS02001901YS02001904 CONDUIT    196.56     0  01:47      0.39    0.30    0.76
  YS02001904YS02001907 CONDUIT    201.75     0  01:47      0.28    0.07    0.87
  YS02001907YS02006553 CONDUIT    524.95     0  01:47      0.58    0.62    1.00
  YS02001910YS02001907 CONDUIT    344.47     0  01:44      0.49    0.19    0.94
  YS02001915YS02001910 CONDUIT    352.98     0  01:44      0.55    0.18    0.77
  YS02001918YS02001915 CONDUIT    129.66     0  01:46      0.44    0.07    0.49
  YS02001920YS02001918 CONDUIT    117.97     0  01:47      0.71    0.11    0.35
  YS02001923YS02001920 CONDUIT    111.37     0  01:44      0.78    0.05    0.27
  YS02001926YS02001923 CONDUIT    111.34     0  01:44      0.80    0.16    0.23
  YS02001929YS02001926 CONDUIT    111.50     0  01:43      0.88    0.05    0.22
  YS02006553YS02006556 CONDUIT    525.20     0  01:47      0.67    0.45    1.00
  YS02006556YS02006558 CONDUIT    526.46     0  01:47      0.67    0.42    1.00
  YS02006558YS02006561 CONDUIT    756.90     0  01:44      3.13    1.67    0.80
  YS02006561YS02001783 CONDUIT    757.79     0  01:45      2.15    0.39    0.67
  YS02163301YS02001633 CONDUIT    770.62     0  01:48      0.98    0.72    1.00
  YS02163601YS02164001 CONDUIT    987.98     0  01:47      1.26    0.88    1.00
  YS02164001YS02001641 CONDUIT    987.91     0  01:47      1.26    1.35    1.00
  YSB1154YSB6556       CONDUIT    122.78     0  01:40      0.32    0.22    1.00
  YSB1171HS02004479    CONDUIT    232.65     0  01:39      0.54    0.16    1.00
  YSB1174YSB1171       CONDUIT    111.11     0  01:39      0.29    0.17    1.00
  YSB6556YSB1171       CONDUIT    124.12     0  01:40      0.32    0.13    1.00
  CC-R1                PUMP       683.00     0  00:00              1.00
  CC-R2                PUMP       683.00     0  00:00              1.00
  CC-S1                PUMP       200.00     0  00:00              1.00
  CC-S2                PUMP       200.00     0  00:00              1.00
  JK-R1                PUMP      1000.00     0  00:00              1.00
  JK-R2                PUMP      1000.00     0  00:00              1.00
  JK-S                 PUMP       300.00     0  00:00              1.00
  XR-1                 PUMP        95.00     0  00:00              1.00
  XR-2                 PUMP        95.00     0  00:00              1.00
  XR-3                 PUMP        95.00     0  00:00              1.00
  XR-4                 PUMP        95.00     0  00:00              1.00
  
  
  ***************************
  Flow Classification Summary
  ***************************
  
  -------------------------------------------------------------------------------------
                      Adjusted    ---------- Fraction of Time in Flow Class ---------- 
                       /Actual         Up    Down  Sub   Sup   Up    Down  Norm  Inlet 
  Conduit               Length    Dry  Dry   Dry   Crit  Crit  Crit  Crit  Ltd   Ctrl  
  -------------------------------------------------------------------------------------
  1                       1.00   0.00  0.00  0.00  0.00  1.00  0.00  0.00  0.40  0.00
  HS02004478WS02006287    1.00   0.17  0.00  0.00  0.49  0.34  0.00  0.00  0.64  0.00
  HS02004479HS02004480    1.00   0.06  0.00  0.00  0.94  0.00  0.00  0.00  0.12  0.00
  HS02004480HS02004478    1.00   0.15  0.00  0.00  0.43  0.00  0.00  0.42  0.00  0.00
  HS02004770HS02004777    1.00   0.00  0.15  0.00  0.85  0.00  0.00  0.00  0.04  0.00
  HS02004777HS02004785    1.00   0.00  0.00  0.00  1.00  0.00  0.00  0.00  0.13  0.00
  HS02004785HS02004788    1.00   0.00  0.00  0.00  1.00  0.00  0.00  0.00  0.00  0.00
  HS02004788HS02004792    1.00   0.00  0.00  0.00  0.99  0.01  0.00  0.00  0.97  0.00
  HS02004792HS02004799    1.00   0.00  0.00  0.00  0.99  0.01  0.00  0.00  0.93  0.00
  HS02004799HS02004480    1.00   0.00  0.06  0.00  0.83  0.00  0.11  0.00  0.00  0.00
  HS02004802HS02004478    1.00   0.15  0.01  0.00  0.84  0.00  0.00  0.00  0.03  0.00
  HS02004807HS02004802    1.00   0.15  0.00  0.00  0.84  0.00  0.00  0.01  0.00  0.00
  HS02004817HS02004807    1.00   0.00  0.15  0.00  0.85  0.00  0.00  0.00  0.01  0.00
  HS02004817HS02004824    1.00   0.00  0.00  0.00  1.00  0.00  0.00  0.00  0.90  0.00
  HS02004824HS02004830    1.00   0.00  0.00  0.00  1.00  0.00  0.00  0.00  0.01  0.00
  HS02004830HS02004837    1.00   0.00  0.00  0.00  1.00  0.00  0.00  0.00  0.94  0.00
  HS02004837HS02004842    1.00   0.00  0.00  0.00  0.99  0.01  0.00  0.00  0.11  0.00
  HS02004842HS02004848    1.00   0.00  0.15  0.00  0.85  0.00  0.00  0.00  0.62  0.00
  HS02004848HS02004852    1.00   0.15  0.00  0.00  0.85  0.00  0.00  0.00  0.76  0.00
  HS02004852HS02004856    1.00   0.15  0.01  0.00  0.84  0.00  0.00  0.00  0.76  0.00
  HS02004856HS02004862    1.00   0.00  0.18  0.00  0.82  0.00  0.00  0.00  0.79  0.00
  HS02004862HS02004870    1.00   0.00  0.00  0.00  1.00  0.00  0.00  0.00  0.04  0.00
  HS02004870HS02004876    1.00   0.00  0.00  0.00  0.97  0.03  0.00  0.00  0.93  0.00
  HS02004876HS02004881    1.00   0.02  0.00  0.00  0.70  0.28  0.00  0.00  0.00  0.00
  HS02004881HS02006253    1.00   0.00  0.09  0.00  0.23  0.05  0.00  0.63  0.13  0.00
  HS02004901HS02004770    1.00   0.15  0.00  0.00  0.85  0.00  0.00  0.00  0.01  0.00
  WS02001211WS02001212    1.00   0.00  0.03  0.00  0.97  0.00  0.00  0.00  0.00  0.00
  WS02001212WS02001213    1.00   0.03  0.00  0.00  0.40  0.00  0.56  0.00  0.00  0.00
  WS02001213WS02003059    1.00   0.00  0.00  0.00  0.99  0.00  0.00  0.00  0.00  0.00
  WS02003059WS02003060    1.00   0.00  0.00  0.00  1.00  0.00  0.00  0.00  0.03  0.00
  WS02003060WS02003069    1.00   0.00  0.00  0.00  0.97  0.03  0.00  0.00  0.59  0.00
  WS02003066WSF200        1.00   0.09  0.00  0.00  0.00  0.91  0.00  0.00  0.79  0.00
  WS02003067WS02003066    1.00   0.08  0.01  0.00  0.91  0.00  0.00  0.00  0.00  0.00
  WS02003069WS02003072    1.00   0.00  0.00  0.00  1.00  0.00  0.00  0.00  0.72  0.00
  WS02003072WS02003073    1.00   0.00  0.00  0.00  0.00  0.00  0.00  1.00  0.00  0.00
  WS02004138WS02004139    1.00   0.00  0.01  0.00  0.96  0.02  0.00  0.02  0.98  0.00
  WS02004139WS02001211    1.00   0.00  0.00  0.00  0.99  0.00  0.00  0.00  0.00  0.00
  WS02004401WS02004402    1.00   0.03  0.00  0.00  0.97  0.00  0.00  0.00  0.00  0.00
  WS02004402WS02004403    1.00   0.03  0.00  0.00  0.97  0.00  0.00  0.00  0.00  0.00
  WS02004403WS02004404    1.00   0.00  0.03  0.00  0.96  0.00  0.00  0.00  0.00  0.00
  WS02004404WS02004405    1.00   0.00  0.00  0.00  1.00  0.00  0.00  0.00  0.01  0.00
  WS02004405WS02004406    1.00   0.00  0.00  0.00  1.00  0.00  0.00  0.00  0.00  0.00
  WS02004406WS02004407    1.00   0.00  0.06  0.00  0.94  0.00  0.00  0.00  0.00  0.00
  WS02004407WS02004409    1.00   0.06  0.00  0.00  0.91  0.03  0.00  0.00  0.91  0.00
  WS02004409WS02004410    1.00   0.06  0.00  0.00  0.94  0.00  0.00  0.00  0.00  0.00
  WS02004410WS02004411    1.00   0.06  0.00  0.00  0.94  0.00  0.00  0.00  0.00  0.00
  WS02004411WS02004412    1.00   0.06  0.00  0.00  0.93  0.00  0.00  0.00  0.00  0.00
  WS02004412WS02004413    1.00   0.07  0.00  0.00  0.93  0.00  0.00  0.00  0.00  0.00
  WS02004413WS02003067    1.00   0.07  0.01  0.00  0.00  0.00  0.92  0.00  0.00  0.00
  WS02006109WS02006110    1.00   0.00  0.01  0.00  0.98  0.00  0.01  0.00  0.00  0.00
  WS02006110WS02006113    1.00   0.01  0.01  0.00  0.98  0.00  0.00  0.00  0.00  0.00
  WS02006111WS02006112    1.00   0.02  0.00  0.00  0.97  0.00  0.00  0.00  0.86  0.00
  WS02006112WS02006115    1.00   0.02  0.01  0.00  0.97  0.00  0.01  0.00  0.00  0.00
  WS02006113WS02006111    1.00   0.02  0.00  0.00  0.19  0.80  0.00  0.00  0.09  0.00
  WS02006115WS02006116    1.00   0.03  0.00  0.00  0.96  0.00  0.00  0.01  0.00  0.00
  WS02006116WS02004401    1.00   0.03  0.00  0.00  0.97  0.00  0.00  0.00  0.00  0.00
  WS02006228WS02006109    1.00   0.00  0.00  0.00  1.00  0.00  0.00  0.00  0.00  0.00
  WS02006229WS02006228    1.00   0.00  0.00  0.00  0.99  0.00  0.00  0.01  0.00  0.00
  WS02006230WS02006229    1.00   0.00  0.00  0.00  0.98  0.00  0.00  0.02  0.04  0.00
  WS02006231WS02006230    1.00   0.00  0.00  0.00  0.47  0.00  0.53  0.00  0.00  0.00
  WS02006232WS02006231    1.00   0.00  0.00  0.00  0.99  0.00  0.00  0.00  0.00  0.00
  WS02006234WS02006232    1.00   0.00  0.00  0.00  1.00  0.00  0.00  0.00  0.09  0.00
  WS02006235WS02006234    1.00   0.00  0.00  0.00  0.75  0.00  0.24  0.00  0.00  0.00
  WS02006238WS02006235    1.00   0.00  0.00  0.00  1.00  0.00  0.00  0.00  0.01  0.00
  WS02006239WS02006238    1.00   0.00  0.00  0.00  1.00  0.00  0.00  0.00  0.29  0.00
  WS02006240WS02006239    1.00   0.00  0.00  0.00  0.68  0.00  0.00  0.32  0.03  0.00
  WS02006242WS02006240    1.00   0.00  0.00  0.00  0.98  0.00  0.01  0.00  0.00  0.00
  WS02006243WS02006242    1.00   0.00  0.00  0.00  0.99  0.00  0.00  0.00  0.71  0.00
  WS02006245WS02006243    1.00   0.00  0.00  0.00  0.88  0.00  0.00  0.11  0.00  0.00
  WS02006247WS02006245    1.00   0.00  0.00  0.00  0.99  0.00  0.00  0.01  0.00  0.00
  WS02006248WS02006247    1.00   0.00  0.00  0.00  0.99  0.00  0.00  0.00  0.71  0.00
  WS02006249WS02006248    1.00   0.00  0.00  0.00  0.50  0.00  0.50  0.00  0.00  0.00
  WS02006251WS02006249    1.00   0.00  0.00  0.00  1.00  0.00  0.00  0.00  0.72  0.00
  WS02006252WS02006251    1.00   0.05  0.46  0.00  0.16  0.01  0.32  0.00  0.01  0.00
  WS02006253WS02006251    1.00   0.00  0.00  0.00  0.99  0.00  0.01  0.00  0.00  0.00
  WS02006256WS02006235    1.00   0.00  0.00  0.00  0.99  0.01  0.00  0.00  0.01  0.00
  WS02006280WS02006229    1.00   0.15  0.00  0.00  0.13  0.04  0.00  0.67  0.01  0.00
  WS02006284WS02006280    1.00   0.15  0.00  0.00  0.08  0.01  0.00  0.76  0.00  0.00
  WS02006287WS02006284    1.00   0.13  0.04  0.00  0.41  0.41  0.00  0.01  0.70  0.00
  WSF200WS02003060        1.00   0.00  0.09  0.00  0.56  0.35  0.00  0.00  0.71  0.00
  YS02001580YS02001583    1.00   0.23  0.54  0.00  0.23  0.00  0.00  0.00  0.77  0.00
  YS02001583YS02001586    1.00   0.40  0.27  0.00  0.33  0.00  0.01  0.00  0.77  0.00
  YS02001586YS02001590    1.00   0.15  0.00  0.00  0.49  0.03  0.00  0.33  0.32  0.00
  YS02001590YS02001593    1.00   0.15  0.01  0.00  0.09  0.00  0.76  0.00  0.00  0.00
  YS02001593YS02001596    1.00   0.15  0.00  0.00  0.11  0.01  0.00  0.72  0.02  0.00
  YS02001596YS02001600    1.00   0.15  0.00  0.00  0.22  0.04  0.00  0.59  0.05  0.00
  YS02001600YS02001601    1.00   0.15  0.01  0.00  0.84  0.00  0.00  0.00  0.67  0.00
  YS02001601YS02001602    1.00   0.15  0.01  0.00  0.85  0.00  0.00  0.00  0.00  0.00
  YS02001602YS02001605    1.00   0.15  0.00  0.00  0.84  0.00  0.00  0.00  0.00  0.00
  YS02001605YS02001607    1.00   0.16  0.00  0.00  0.84  0.00  0.00  0.00  0.00  0.00
  YS02001607YS02001610    1.00   0.15  0.01  0.00  0.84  0.00  0.00  0.00  0.02  0.00
  YS02001610YS02001613    1.00   0.15  0.00  0.00  0.85  0.00  0.00  0.00  0.01  0.00
  YS02001613YS02001616    1.00   0.15  0.00  0.00  0.85  0.00  0.00  0.00  0.01  0.00
  YS02001616YS02001619    1.00   0.15  0.00  0.00  0.85  0.00  0.00  0.00  0.00  0.00
  YS02001619YS02001622    1.00   0.15  0.00  0.00  0.85  0.00  0.00  0.00  0.38  0.00
  YS02001622YS02001625    1.00   0.15  0.00  0.00  0.85  0.00  0.00  0.00  0.06  0.00
  YS02001625YS02001629    1.00   0.15  0.04  0.00  0.14  0.00  0.67  0.00  0.00  0.00
  YS02001629YS02163301    1.00   0.17  0.01  0.00  0.83  0.00  0.00  0.00  0.00  0.00
  YS02001633YS02163601    1.00   0.00  0.01  0.00  0.99  0.00  0.00  0.00  0.16  0.00
  YS02001641YS02001644    1.00   0.00  0.01  0.00  0.99  0.00  0.00  0.00  0.00  0.00
  YS02001644YS02001647    1.00   0.00  0.18  0.00  0.82  0.00  0.00  0.00  0.00  0.00
  YS02001647YS02001649    1.00   0.00  0.18  0.00  0.41  0.41  0.00  0.00  0.61  0.00
  YS02001649YS02001757    1.00   0.00  0.00  0.00  0.72  0.28  0.00  0.00  0.64  0.00
  YS02001652YS02001649    1.00   0.00  0.00  0.00  0.97  0.03  0.00  0.00  0.82  0.00
  YS02001655YS02001652    1.00   0.00  0.00  0.00  0.17  0.03  0.00  0.80  0.09  0.00
  YS02001658YS02001655    1.00   0.00  0.16  0.00  0.38  0.46  0.00  0.00  0.81  0.00
  YS02001661YS02001658    1.00   0.16  0.00  0.00  0.29  0.55  0.00  0.00  0.79  0.00
  YS02001664YS02001661    1.00   0.15  0.00  0.00  0.70  0.15  0.00  0.00  0.87  0.00
  YS02001745YS02001748    1.00   0.00  0.00  0.00  0.00  0.00  0.00  1.00  0.00  0.00
  YS02001748YS02001751    1.00   0.00  0.00  0.00  0.58  0.42  0.00  0.00  0.85  0.00
  YS02001751YS02001754    1.00   0.00  0.00  0.00  0.10  0.01  0.00  0.88  0.05  0.00
  YS02001754YS02001757    1.00   0.00  0.00  0.00  1.00  0.00  0.00  0.00  0.93  0.00
  YS02001757CaochengTiaoxuchi    1.00   0.00  0.00  0.00  0.23  0.77  0.00  0.00  0.36  0.00
  YS02001759YS02001757    1.00   0.00  0.00  0.00  1.00  0.00  0.00  0.00  0.73  0.00
  YS02001762YS02001759    1.00   0.00  0.00  0.00  1.00  0.00  0.00  0.00  0.05  0.00
  YS02001765YS02001762    1.00   0.00  0.00  0.00  1.00  0.00  0.00  0.00  0.80  0.00
  YS02001767YS02001765    1.00   0.00  0.00  0.00  1.00  0.00  0.00  0.00  0.00  0.00
  YS02001770YS02001767    1.00   0.00  0.00  0.00  1.00  0.00  0.00  0.00  0.00  0.00
  YS02001774YS02001770    1.00   0.00  0.15  0.00  0.67  0.00  0.17  0.00  0.04  0.00
  YS02001779YS02001774    1.00   0.00  0.00  0.00  1.00  0.00  0.00  0.00  0.88  0.00
  YS02001783YS02001784    1.00   0.00  0.19  0.00  0.81  0.00  0.00  0.00  0.60  0.00
  YS02001784YS02001785    1.00   0.00  0.00  0.00  1.00  0.00  0.00  0.00  0.18  0.00
  YS02001786YS02001788    1.00   0.00  0.00  0.00  0.60  0.40  0.00  0.00  0.00  0.00
  YS02001788YS02001790    1.00   0.00  0.00  0.00  0.20  0.80  0.00  0.00  0.91  0.00
  YS02001790YS02001791    1.00   0.00  0.00  0.00  0.01  0.99  0.00  0.00  0.17  0.00
  YS02001791YS02001793    1.00   0.00  0.00  0.00  0.00  1.00  0.00  0.00  0.00  0.00
  YS02001793JiankangQianchi    1.00   0.00  0.00  0.00  0.15  0.85  0.00  0.00  0.68  0.00
  YS02001882YS02001884    1.00   0.17  0.01  0.00  0.83  0.00  0.00  0.00  0.00  0.00
  YS02001884YS02001887    1.00   0.10  0.04  0.00  0.86  0.00  0.00  0.00  0.00  0.00
  YS02001887YS02001890    1.00   0.00  0.00  0.00  0.95  0.00  0.04  0.00  0.00  0.00
  YS02001890YS02001895    1.00   0.00  0.17  0.00  0.82  0.00  0.00  0.00  0.00  0.00
  YS02001895YS02001898    1.00   0.18  0.00  0.00  0.81  0.00  0.01  0.00  0.00  0.00
  YS02001898YS02001901    1.00   0.18  0.00  0.00  0.82  0.00  0.00  0.00  0.01  0.00
  YS02001901YS02001904    1.00   0.17  0.00  0.00  0.83  0.00  0.00  0.00  0.00  0.00
  YS02001904YS02001907    1.00   0.00  0.17  0.00  0.83  0.00  0.00  0.00  0.00  0.00
  YS02001907YS02006553    1.00   0.00  0.03  0.00  0.97  0.00  0.00  0.00  0.00  0.00
  YS02001910YS02001907    1.00   0.00  0.00  0.00  0.96  0.01  0.00  0.03  0.12  0.00
  YS02001915YS02001910    1.00   0.00  0.00  0.00  0.97  0.03  0.00  0.00  0.17  0.00
  YS02001918YS02001915    1.00   0.00  0.00  0.00  0.97  0.03  0.00  0.00  0.82  0.00
  YS02001920YS02001918    1.00   0.00  0.00  0.00  1.00  0.00  0.00  0.00  0.00  0.00
  YS02001923YS02001920    1.00   0.00  0.00  0.00  1.00  0.00  0.00  0.00  1.00  0.00
  YS02001926YS02001923    1.00   0.00  0.11  0.00  0.00  0.00  0.89  0.00  0.00  0.00
  YS02001929YS02001926    1.00   0.00  0.15  0.00  0.85  0.00  0.00  0.00  0.87  0.00
  YS02006553YS02006556    1.00   0.01  0.00  0.00  0.99  0.00  0.00  0.00  0.03  0.00
  YS02006556YS02006558    1.00   0.00  0.00  0.00  1.00  0.00  0.00  0.00  0.00  0.00
  YS02006558YS02006561    1.00   0.19  0.00  0.00  0.00  0.81  0.00  0.00  0.20  0.00
  YS02006561YS02001783    1.00   0.19  0.00  0.00  0.03  0.78  0.00  0.00  0.75  0.00
  YS02163301YS02001633    1.00   0.00  0.17  0.00  0.83  0.00  0.00  0.00  0.00  0.00
  YS02163601YS02164001    1.00   0.00  0.12  0.00  0.88  0.00  0.00  0.00  0.00  0.00
  YS02164001YS02001641    1.00   0.01  0.11  0.00  0.88  0.00  0.00  0.00  0.06  0.00
  YSB1154YSB6556          1.00   0.15  0.00  0.00  0.85  0.00  0.00  0.00  0.02  0.00
  YSB1171HS02004479       1.00   0.07  0.00  0.00  0.91  0.00  0.00  0.02  0.11  0.00
  YSB1174YSB1171          1.00   0.09  0.04  0.00  0.87  0.00  0.00  0.00  0.00  0.00
  YSB6556YSB1171          1.00   0.07  0.08  0.00  0.85  0.00  0.00  0.00  0.00  0.00
  
  
  *************************
  Conduit Surcharge Summary
  *************************
  
  ----------------------------------------------------------------------------
                                                           Hours        Hours 
                         --------- Hours Full --------   Above Full   Capacity
  Conduit                Both Ends  Upstream  Dnstream   Normal Flow   Limited
  ----------------------------------------------------------------------------
  HS02004478WS02006287        0.01      0.01      0.11      0.01         0.01
  HS02004479HS02004480        0.14      0.14      0.17      0.01         0.01
  HS02004480HS02004478        0.01      0.13      0.01      1.07         0.01
  HS02004785HS02004788        0.01      0.01      0.01      0.74         0.01
  HS02004788HS02004792        0.01      0.01      0.08      0.01         0.01
  HS02004792HS02004799        0.08      0.08      0.23      0.01         0.01
  HS02004799HS02004480        0.13      0.13      0.23      0.30         0.01
  HS02004802HS02004478        0.01      0.01      0.12      0.01         0.01
  HS02004807HS02004802        0.09      0.09      0.12      0.01         0.01
  HS02004817HS02004807        0.09      0.09      0.57      0.01         0.01
  HS02004817HS02004824        0.01      0.01      0.57      0.01         0.01
  HS02004876HS02004881        0.01      0.01      0.01      0.73         0.01
  HS02004881HS02006253        0.01      0.01      0.54      0.01         0.01
  WS02003072WS02003073        0.01      0.01      0.01      1.78         0.01
  WS02004401WS02004402        0.77      0.77      0.82      0.65         0.60
  WS02004402WS02004403        0.82      0.82      0.83      0.78         0.76
  WS02004403WS02004404        0.83      0.83      0.99      0.01         0.01
  WS02004404WS02004405        0.98      0.99      0.98      2.55         0.97
  WS02004405WS02004406        0.95      0.98      0.95      1.13         0.95
  WS02004406WS02004407        0.01      0.01      0.95      0.01         0.01
  WS02004407WS02004409        0.01      0.01      0.32      0.01         0.01
  WS02004409WS02004410        0.29      0.32      0.29      0.72         0.29
  WS02004410WS02004411        0.25      0.29      0.25      0.75         0.25
  WS02004411WS02004412        0.18      0.25      0.18      0.77         0.18
  WS02004412WS02004413        0.18      0.18      0.55      0.01         0.01
  WS02004413WS02003067        0.01      0.01      0.55      0.01         0.01
  WS02006109WS02006110        1.08      1.08      1.50      1.09         0.01
  WS02006110WS02006113        0.54      0.54      1.46      0.05         0.01
  WS02006111WS02006112        0.53      0.53      1.77      0.01         0.01
  WS02006112WS02006115        0.72      0.72      1.18      0.01         0.01
  WS02006113WS02006111        0.53      0.54      0.53      0.60         0.53
  WS02006115WS02006116        0.72      0.72      0.73      0.74         0.70
  WS02006116WS02004401        0.76      0.77      0.77      0.77         0.74
  WS02006228WS02006109        1.39      1.49      1.39      2.02         1.39
  WS02006229WS02006228        1.37      1.44      1.37      1.79         1.37
  WS02006230WS02006229        1.62      1.66      1.62      2.59         1.03
  WS02006231WS02006230        0.90      0.91      0.94      2.23         0.52
  WS02006232WS02006231        0.91      0.91      1.23      0.01         0.04
  WS02006234WS02006232        0.93      0.93      1.23      0.01         0.02
  WS02006235WS02006234        0.84      0.86      0.96      1.86         0.46
  WS02006238WS02006235        1.01      1.01      1.15      0.01         0.07
  WS02006239WS02006238        1.02      1.07      1.05      0.58         0.24
  WS02006240WS02006239        0.88      0.92      0.91      0.57         0.17
  WS02006242WS02006240        0.89      0.89      1.11      0.80         0.31
  WS02006243WS02006242        0.90      0.90      1.04      0.01         0.01
  WS02006245WS02006243        0.85      0.87      0.87      0.36         0.17
  WS02006247WS02006245        0.85      0.91      0.85      1.38         0.39
  WS02006248WS02006247        0.82      0.82      0.88      0.01         0.01
  WS02006249WS02006248        0.78      0.79      0.83      0.71         0.03
  WS02006251WS02006249        0.81      0.83      0.83      0.92         0.66
  WS02006252WS02006251        1.07      1.07      1.11      1.05         0.01
  WS02006253WS02006251        0.82      0.82      0.87      0.25         0.05
  WS02006256WS02006235        1.96      2.10      5.39      0.15         0.07
  WS02006280WS02006229        0.22      0.22      0.30      0.01         0.01
  WS02006284WS02006280        0.14      0.14      0.21      0.01         0.01
  WS02006287WS02006284        0.01      0.01      0.15      0.01         0.01
  YS02001586YS02001590        0.01      0.01      0.16      0.01         0.01
  YS02001590YS02001593        0.16      0.16      0.19      0.15         0.01
  YS02001593YS02001596        0.17      0.17      0.29      0.01         0.01
  YS02001596YS02001600        0.33      0.33      0.40      0.01         0.01
  YS02001600YS02001601        0.45      0.45      0.69      0.01         0.01
  YS02001601YS02001602        0.59      0.59      0.73      0.43         0.01
  YS02001602YS02001605        0.55      0.55      0.59      1.63         0.01
  YS02001605YS02001607        0.51      0.55      0.51      0.65         0.51
  YS02001607YS02001610        0.06      0.06      0.11      0.01         0.01
  YS02001610YS02001613        0.02      0.02      0.11      0.01         0.01
  YS02001613YS02001616        0.01      0.01      0.02      0.01         0.01
  YS02001619YS02001622        0.01      0.01      0.01      0.18         0.01
  YS02001622YS02001625        0.01      0.01      0.22      0.01         0.01
  YS02001625YS02001629        0.01      0.01      0.22      0.01         0.01
  YS02001629YS02163301        0.20      0.20      0.21      0.01         0.01
  YS02001633YS02163601        0.23      0.23      0.26      0.09         0.08
  YS02001641YS02001644        0.01      0.10      0.01      0.78         0.01
  YS02001770YS02001767        0.01      0.01      0.01      0.06         0.01
  YS02001783YS02001784        0.01      0.01      0.01      0.09         0.01
  YS02001784YS02001785        0.01      0.01      0.01      0.34         0.01
  YS02001786YS02001788        0.01      0.01      0.01      0.23         0.01
  YS02001904YS02001907        0.01      0.01      0.21      0.01         0.01
  YS02001907YS02006553        0.35      0.35      0.40      0.01         0.01
  YS02001910YS02001907        0.01      0.01      0.18      0.01         0.01
  YS02006553YS02006556        0.01      0.01      0.20      0.01         0.01
  YS02006556YS02006558        0.13      0.13      0.22      0.01         0.01
  YS02006558YS02006561        0.01      0.01      0.01      0.30         0.01
  YS02163301YS02001633        0.21      0.21      0.25      0.01         0.01
  YS02163601YS02164001        0.12      0.12      0.26      0.01         0.01
  YS02164001YS02001641        0.10      0.12      0.10      0.31         0.10
  YSB1154YSB6556              0.20      0.20      0.33      0.01         0.01
  YSB1171HS02004479           0.03      0.03      0.33      0.01         0.01
  YSB1174YSB1171              0.26      0.26      0.50      0.01         0.01
  YSB6556YSB1171              0.20      0.20      0.62      0.01         0.01
  
  
  ***************
  Pumping Summary
  ***************
  
  ---------------------------------------------------------------------------------------------------------
                                                  Min       Avg       Max     Total     Power    % Time Off
                        Percent   Number of      Flow      Flow      Flow    Volume     Usage    Pump Curve
  Pump                 Utilized   Start-Ups       LPS       LPS       LPS  10^6 ltr     Kw-hr    Low   High
  ---------------------------------------------------------------------------------------------------------
  CC-R1                   13.18           8      0.00    683.00    683.00     2.592     40.08    0.0  100.0
  CC-R2                   13.18           8      0.00    683.00    683.00     2.592     40.08    0.0  100.0
  CC-S1                   13.18           8      0.00    200.00    200.00     0.759      6.82    0.0   78.8
  CC-S2                   13.18           8      0.00    200.00    200.00     0.759      6.82    0.0   78.8
  JK-R1                    3.72         219      0.00    978.36   1000.00     1.033      2.65    0.0    0.0
  JK-R2                    3.72         219      0.00    978.36   1000.00     1.033      2.65    0.0    0.0
  JK-S                     3.72         219      0.00    299.36    300.00     0.320      7.26    0.0    0.0
  XR-1                    97.91           2      0.00     95.00     95.00     2.679      9.63    0.0    0.0
  XR-2                    93.94           2      0.00     95.00     95.00     2.570      8.78    0.0    0.0
  XR-3                     0.00           1      0.00     95.00     95.00     0.000      0.00    0.0    0.0
  XR-4                     0.00           1      0.00     95.00     95.00     0.000      0.00    0.0    0.0
  

  Analysis begun on:  Mon Jun 12 11:27:46 2023
  Analysis ended on:  Mon Jun 12 11:27:51 2023
  Total elapsed time: 00:00:05