
  OWA STORM WATER MANAGEMENT MODEL - VERSION v5.1.14 (OWA 2022-07-31)
  --------------------------------------------------------------

  WARNING 04: minimum elevation drop used for Conduit WS02004404WS02004405
  WARNING 03: negative offset ignored for Link YS02001904YS02001907
  
  *********************************************************
  NOTE: The summary statistics displayed in this report are
  based on results found at every computational time step,  
  not just on results from each reporting time step.
  *********************************************************
  
  ****************
  Analysis Options
  ****************
  Flow Units ............... LPS
  Process Models:
    Rainfall/Runoff ........ YES
    RDII ................... NO
    Snowmelt ............... NO
    Groundwater ............ NO
    Flow Routing ........... YES
    Ponding Allowed ........ NO
    Water Quality .......... NO
  Infiltration Method ...... HORTON
  Flow Routing Method ...... DYNWAVE
  Surcharge Method ......... EXTRAN
  Starting Date ............ 08/28/2015 08:00:00
  Ending Date .............. 08/28/2015 16:00:00
  Antecedent Dry Days ...... 8.0
  Report Time Step ......... 00:01:00
  Wet Time Step ............ 00:01:00
  Dry Time Step ............ 00:01:00
  Routing Time Step ........ 30.00 sec
  Variable Time Step ....... YES
  Maximum Trials ........... 8
  Number of Threads ........ 4
  Head Tolerance ........... 0.001500 m
  
  
  **************************        Volume         Depth
  Runoff Quantity Continuity     hectare-m            mm
  **************************     ---------       -------
  Initial LID Storage ......         0.072         1.184
  Total Precipitation ......         8.442       139.361
  Evaporation Loss .........         0.000         0.000
  Infiltration Loss ........         0.217         3.583
  Surface Runoff ...........         6.900       113.907
  Final Storage ............         1.398        23.083
  Continuity Error (%) .....        -0.020
  
  
  **************************        Volume        Volume
  Flow Routing Continuity        hectare-m      10^6 ltr
  **************************     ---------     ---------
  Dry Weather Inflow .......         0.630         6.296
  Wet Weather Inflow .......         6.900        69.000
  Groundwater Inflow .......         0.000         0.000
  RDII Inflow ..............         0.000         0.000
  External Inflow ..........         0.105         1.045
  External Outflow .........         3.443        34.428
  Flooding Loss ............         4.346        43.462
  Evaporation Loss .........         0.000         0.000
  Exfiltration Loss ........         0.000         0.000
  Initial Stored Volume ....         0.303         3.031
  Final Stored Volume ......         0.200         2.004
  Continuity Error (%) .....        -0.657
  
  
  *************************
  Highest Continuity Errors
  *************************
  Node JK-storage (-9.67%)
  Node WS02006256 (6.05%)
  Node YS02001884 (5.05%)
  Node YS02001583 (-3.02%)
  
  
  ***************************
  Time-Step Critical Elements
  ***************************
  Link WS02006280WS02006229 (42.54%)
  Link YS02001793JiankangQianchi (24.34%)
  Link WS02006238WS02006235 (9.27%)
  Link WS02004404WS02004405 (4.34%)
  Link WS02003066WSF200 (3.23%)
  
  
  ********************************
  Highest Flow Instability Indexes
  ********************************
  Link WS02004404WS02004405 (43)
  Link WS02006229WS02006228 (39)
  Link WS02006252WS02006251 (37)
  Link WS02004403WS02004404 (37)
  Link WS02006280WS02006229 (32)
  
  
  *************************
  Routing Time Step Summary
  *************************
  Minimum Time Step           :     0.00 sec
  Average Time Step           :     2.28 sec
  Maximum Time Step           :     6.46 sec
  Percent in Steady State     :     0.00
  Average Iterations per Step :     4.92
  Percent Not Converging      :    36.50
  
  
  ***************************
  Subcatchment Runoff Summary
  ***************************
  
  ------------------------------------------------------------------------------------------------------------------------------
                            Total      Total      Total      Total     Imperv       Perv      Total       Total     Peak  Runoff
                           Precip      Runon       Evap      Infil     Runoff     Runoff     Runoff      Runoff   Runoff   Coeff
  Subcatchment                 mm         mm         mm         mm         mm         mm         mm    10^6 ltr      LPS
  ------------------------------------------------------------------------------------------------------------------------------
  sub0                     139.36       0.00       0.00       1.05     128.38       8.71     137.09        0.11    82.92   0.984
  sub1                     139.36       0.00       0.00       1.60     110.07      12.14     123.65        0.82   533.61   0.887
  sub10                    139.36       0.00       0.00       1.02     103.14       8.04     113.78        1.26   829.30   0.816
  sub11                    139.36       0.00       0.00       0.93      95.84       7.49     106.73        1.24   852.31   0.766
  sub12                    139.36       0.00       0.00       1.63      97.42      13.07     113.12        0.99   715.57   0.812
  sub14                    139.36       0.00       0.00       1.01      90.77       8.06     102.67        0.98   659.95   0.737
  sub15                    139.36       0.00       0.00       4.62      81.61      30.71     114.47        1.97  1231.33   0.821
  sub16                    139.36       0.00       0.00       4.90      79.59      34.69     116.21        1.22   818.72   0.834
  sub17                    139.36       0.00       0.00       5.25      87.84      36.50     125.23        1.07   714.73   0.899
  sub2                     139.36       0.00       0.00       7.32      80.48      40.43     121.94        1.14   615.88   0.875
  sub22                    139.36       0.00       0.00       8.19      76.18      49.85     126.46        7.99  4722.86   0.907
  sub23                    139.36       0.00       0.00       6.15      78.44      40.37     120.17        5.73  3588.70   0.862
  sub3                     139.36       0.00       0.00       7.89      79.73      39.44     120.31        2.71  1346.63   0.863
  sub4                     139.36       0.00       0.00       1.75     108.55      11.82     121.96        2.54  1391.96   0.875
  sub5                     139.36       0.00       0.00       0.91     106.48       7.19     116.03        1.31   855.85   0.833
  sub60                    139.36       0.00       0.00       1.45      93.73      11.46     108.36        1.42   985.89   0.778
  sub61                    139.36       0.00       0.00       2.24      93.65      17.13     113.32        2.08  1444.48   0.813
  sub62                    139.36       0.00       0.00       0.99      99.86       7.78     110.60        3.03  1983.61   0.794
  sub63                    139.36       0.00       0.00       4.11      80.21      28.98     111.71        2.54  1675.86   0.802
  sub64                    139.36       0.00       0.00       1.97      91.36      14.32     108.74        2.61  1650.01   0.780
  sub65                    139.36       0.00       0.00       1.81      98.62      13.08     114.18        3.14  1947.93   0.819
  sub66                    139.36       0.00       0.00       4.81      77.63      27.23     107.74        5.02  2801.13   0.773
  sub67                    139.36       0.00       0.00       0.98     102.35       8.01     113.05        2.10  1511.38   0.811
  sub68                    139.36       0.00       0.00       1.72      90.40      13.15     106.86        2.94  1976.32   0.767
  sub69                    139.36       0.00       0.00       1.60      93.79      14.97     111.64        4.13  2516.51   0.801
  sub7                     139.36       0.00       0.00       1.07      97.28       8.65     109.05        0.37   256.61   0.783
  sub70                    139.36       0.00       0.00       5.41      75.20      33.39     111.10        3.21  1654.99   0.797
  sub71                    139.36       0.00       0.00       0.91      90.73       7.06     101.74        2.66  1657.35   0.730
  sub72                    139.36       0.00       0.00       0.87      98.04       6.59     107.90        1.48   875.55   0.774
  sub8                     139.36       0.00       0.00       1.05      94.54       8.39     106.37        0.68   463.40   0.763
  sub9                     139.36       0.00       0.00       1.02      91.65       8.14     103.54        0.50   337.72   0.743
  

  ***********************
  LID Performance Summary
  ***********************

  --------------------------------------------------------------------------------------------------------------------
                                         Total      Evap     Infil   Surface    Drain    Initial     Final  Continuity
                                        Inflow      Loss      Loss   Outflow   Outflow   Storage   Storage       Error
  Subcatchment      LID Control             mm        mm        mm        mm        mm        mm        mm           %
  --------------------------------------------------------------------------------------------------------------------
  sub1              GreenRoof           139.36      0.00      0.00     13.87      0.00      7.05    132.54       -0.00
  sub10             GreenRoof           139.36      0.00      0.00     13.87      0.00      7.05    132.54       -0.00
  sub11             GreenRoof           139.36      0.00      0.00     13.87      0.00      7.05    132.54       -0.00
  sub12             GreenRoof           139.36      0.00      0.00     13.87      0.00      7.05    132.54       -0.00
  sub14             GreenRoof           139.36      0.00      0.00     13.87      0.00      7.05    132.54       -0.00
  sub15             GreenRoof           139.36      0.00      0.00     13.87      0.00      7.05    132.54       -0.00
  sub16             GreenRoof           139.36      0.00      0.00     13.87      0.00      7.05    132.54       -0.00
  sub17             GreenRoof           139.36      0.00      0.00     13.87      0.00      7.05    132.54       -0.00
  sub2              GreenRoof           139.36      0.00      0.00     13.87      0.00      7.05    132.54       -0.00
  sub22             GreenRoof           139.36      0.00      0.00     13.87      0.00      7.05    132.54       -0.00
  sub23             GreenRoof           139.36      0.00      0.00     13.87      0.00      7.05    132.54       -0.00
  sub3              GreenRoof           139.36      0.00      0.00     13.87      0.00      7.05    132.54       -0.00
  sub4              GreenRoof           139.36      0.00      0.00     13.87      0.00      7.05    132.54       -0.00
  sub5              GreenRoof           139.36      0.00      0.00     13.87      0.00      7.05    132.54       -0.00
  sub60             GreenRoof           139.36      0.00      0.00     13.87      0.00      7.05    132.54       -0.00
  sub61             GreenRoof           139.36      0.00      0.00     13.87      0.00      7.05    132.54       -0.00
  sub62             GreenRoof           139.36      0.00      0.00     13.87      0.00      7.05    132.54       -0.00
  sub63             GreenRoof           139.36      0.00      0.00     13.87      0.00      7.05    132.54       -0.00
  sub64             GreenRoof           139.36      0.00      0.00     13.87      0.00      7.05    132.54       -0.00
  sub65             GreenRoof           139.36      0.00      0.00     13.87      0.00      7.05    132.54       -0.00
  sub66             GreenRoof           139.36      0.00      0.00     13.87      0.00      7.05    132.54       -0.00
  sub67             GreenRoof           139.36      0.00      0.00     13.87      0.00      7.05    132.54       -0.00
  sub68             GreenRoof           139.36      0.00      0.00     13.87      0.00      7.05    132.54       -0.00
  sub69             GreenRoof           139.36      0.00      0.00     13.87      0.00      7.05    132.54       -0.00
  sub7              GreenRoof           139.36      0.00      0.00     13.87      0.00      7.05    132.54       -0.00
  sub70             GreenRoof           139.36      0.00      0.00     13.87      0.00      7.05    132.54       -0.00
  sub71             GreenRoof           139.36      0.00      0.00     13.87      0.00      7.05    132.54       -0.00
  sub72             GreenRoof           139.36      0.00      0.00     13.87      0.00      7.05    132.54       -0.00
  sub8              GreenRoof           139.36      0.00      0.00     13.87      0.00      7.05    132.54       -0.00
  sub9              GreenRoof           139.36      0.00      0.00     13.87      0.00      7.05    132.54       -0.00
  
  ******************
  Node Depth Summary
  ******************
  
  ---------------------------------------------------------------------------------
                                 Average  Maximum  Maximum  Time of Max    Reported
                                   Depth    Depth      HGL   Occurrence   Max Depth
  Node                 Type       Meters   Meters   Meters  days hr:min      Meters
  ---------------------------------------------------------------------------------
  HS02004478           JUNCTION     0.44     1.72    10.95     0  01:52        1.72
  HS02004479           JUNCTION     0.53     1.75    10.96     0  01:52        1.75
  HS02004480           JUNCTION     0.49     1.77    11.01     0  01:52        1.77
  HS02004770           JUNCTION     0.46     1.42    11.25     0  01:43        1.42
  HS02004777           JUNCTION     0.49     1.48    11.28     0  01:43        1.48
  HS02004785           JUNCTION     0.38     1.49    11.39     0  01:43        1.49
  HS02004788           JUNCTION     0.35     1.42    11.32     0  01:43        1.42
  HS02004792           JUNCTION     0.45     1.60    11.12     0  01:43        1.60
  HS02004799           JUNCTION     0.57     1.76    10.97     0  01:46        1.76
  HS02004802           JUNCTION     0.55     1.83    10.96     0  02:13        1.83
  HS02004807           JUNCTION     0.53     1.92    11.09     0  01:46        1.92
  HS02004817           JUNCTION     0.84     2.44    11.29     0  01:46        2.44
  HS02004824           JUNCTION     0.42     2.01    11.41     0  01:46        2.01
  HS02004830           JUNCTION     0.41     2.03    11.50     0  01:46        2.03
  HS02004837           JUNCTION     0.36     2.04    11.62     0  01:46        2.04
  HS02004842           JUNCTION     0.65     2.22    11.49     0  01:46        2.22
  HS02004848           JUNCTION     0.34     2.07    11.67     0  01:46        2.07
  HS02004852           JUNCTION     0.36     2.12    11.63     0  01:46        2.10
  HS02004856           JUNCTION     0.41     2.07    11.50     0  01:52        2.07
  HS02004862           JUNCTION     0.37     2.00    11.38     0  01:46        2.00
  HS02004870           JUNCTION     0.37     2.10    11.39     0  02:00        2.10
  HS02004876           JUNCTION     0.43     2.26    11.29     0  02:00        2.26
  HS02004881           JUNCTION     0.35     2.04    11.07     0  02:00        2.04
  HS02004901           JUNCTION     0.47     1.42    11.24     0  01:43        1.42
  WS02001211           JUNCTION     0.66     0.84     5.68     0  02:04        0.84
  WS02001212           JUNCTION     0.41     0.60     5.67     0  02:03        0.60
  WS02001213           JUNCTION     0.64     0.90     5.66     0  02:05        0.90
  WS02003059           JUNCTION     0.70     0.97     5.66     0  02:05        0.97
  WS02003060           JUNCTION     0.43     0.72     5.65     0  02:06        0.72
  WS02003066           JUNCTION     0.27     0.47     6.03     0  02:04        0.47
  WS02003067           JUNCTION     0.60     0.91     6.23     0  01:59        0.91
  WS02003069           JUNCTION     0.49     0.81     5.40     0  02:05        0.81
  WS02003072           JUNCTION     0.54     0.84     5.21     0  02:06        0.84
  WS02003073           JUNCTION     0.33     0.54     4.60     0  02:06        0.54
  WS02004138           JUNCTION     0.13     0.14     7.39     0  00:32        0.14
  WS02004139           JUNCTION     0.60     0.77     5.68     0  02:04        0.77
  WS02004401           JUNCTION     0.97     2.13     8.13     0  01:52        2.13
  WS02004402           JUNCTION     0.98     2.05     8.01     0  02:03        2.05
  WS02004403           JUNCTION     0.96     1.98     7.91     0  02:03        1.98
  WS02004404           JUNCTION     1.01     1.96     7.81     0  01:59        1.95
  WS02004405           JUNCTION     0.99     1.91     7.76     0  02:03        1.89
  WS02004406           JUNCTION     0.96     1.77     7.60     0  02:00        1.76
  WS02004407           JUNCTION     0.39     1.08     7.40     0  01:59        1.08
  WS02004409           JUNCTION     0.69     1.51     7.28     0  02:03        1.51
  WS02004410           JUNCTION     0.68     1.43     7.15     0  02:03        1.43
  WS02004411           JUNCTION     0.66     1.28     6.96     0  01:59        1.28
  WS02004412           JUNCTION     0.65     1.16     6.80     0  02:00        1.15
  WS02004413           JUNCTION     0.76     1.17     6.64     0  02:00        1.17
  WS02006109           JUNCTION     1.32     2.64     9.26     0  01:39        2.64
  WS02006110           JUNCTION     1.21     2.76     9.34     0  01:39        2.76
  WS02006111           JUNCTION     0.68     2.38     9.08     0  01:39        2.38
  WS02006112           JUNCTION     1.25     2.68     8.56     0  01:39        2.68
  WS02006113           JUNCTION     0.76     2.72     9.61     0  01:39        2.72
  WS02006115           JUNCTION     0.93     2.28     8.42     0  01:39        2.28
  WS02006116           JUNCTION     0.99     2.23     8.27     0  02:00        2.22
  WS02006228           JUNCTION     1.43     3.03     9.68     0  01:39        3.03
  WS02006229           JUNCTION     1.48     3.23     9.93     0  01:52        3.22
  WS02006230           JUNCTION     1.33     2.65     9.39     0  01:38        2.65
  WS02006231           JUNCTION     1.02     2.24     9.36     0  02:43        2.24
  WS02006232           JUNCTION     1.09     2.18     9.22     0  01:29        2.18
  WS02006234           JUNCTION     0.95     1.96     9.12     0  01:29        1.96
  WS02006235           JUNCTION     0.95     2.00     9.16     0  01:29        2.00
  WS02006238           JUNCTION     0.97     2.15     9.29     0  01:29        2.15
  WS02006239           JUNCTION     0.90     2.03     9.24     0  01:29        2.03
  WS02006240           JUNCTION     0.83     2.10     9.39     0  02:43        2.10
  WS02006242           JUNCTION     0.85     1.55     8.82     0  01:27        1.55
  WS02006243           JUNCTION     0.73     1.48     8.90     0  01:27        1.48
  WS02006245           JUNCTION     0.70     1.56     9.04     0  01:27        1.51
  WS02006247           JUNCTION     0.70     1.47     8.97     0  01:27        1.47
  WS02006248           JUNCTION     0.63     1.10     8.69     0  01:27        1.10
  WS02006249           JUNCTION     0.65     1.09     8.69     0  01:27        1.09
  WS02006251           JUNCTION     0.92     2.21     9.88     0  02:00        2.21
  WS02006252           JUNCTION     0.64     1.50     9.74     0  00:00        1.50
  WS02006253           JUNCTION     1.09     3.31    10.96     0  02:00        3.31
  WS02006256           JUNCTION     1.20     2.35     9.28     0  00:00        2.35
  WS02006280           JUNCTION     0.56     1.76    10.03     0  01:52        1.74
  WS02006284           JUNCTION     0.79     2.08    10.48     0  01:52        2.08
  WS02006287           JUNCTION     0.53     1.87    10.82     0  01:52        1.87
  WSF200               JUNCTION     0.28     0.55     5.78     0  02:04        0.55
  YS02001580           JUNCTION     0.20     1.05     9.59     0  01:42        0.79
  YS02001583           JUNCTION     0.23     1.14     9.64     0  01:42        0.83
  YS02001586           JUNCTION     0.35     1.13     9.30     0  01:42        1.13
  YS02001590           JUNCTION     0.48     1.40     9.26     0  01:42        1.40
  YS02001593           JUNCTION     0.41     1.33     9.19     0  01:42        1.30
  YS02001596           JUNCTION     0.55     1.80     9.22     0  02:43        1.80
  YS02001600           JUNCTION     0.65     1.87     9.00     0  01:39        1.87
  YS02001601           JUNCTION     0.84     2.06     8.90     0  01:39        2.06
  YS02001602           JUNCTION     0.73     1.87     8.77     0  01:39        1.87
  YS02001605           JUNCTION     0.67     1.78     8.68     0  01:39        1.78
  YS02001607           JUNCTION     0.63     1.67     8.52     0  02:03        1.67
  YS02001610           JUNCTION     0.67     1.68     8.48     0  01:48        1.68
  YS02001613           JUNCTION     0.63     1.70     8.54     0  02:43        1.70
  YS02001616           JUNCTION     0.56     1.61     8.52     0  01:52        1.61
  YS02001619           JUNCTION     0.54     1.61     8.54     0  01:52        1.61
  YS02001622           JUNCTION     0.53     1.58     8.49     0  02:11        1.58
  YS02001625           JUNCTION     0.77     1.78     8.38     0  01:48        1.78
  YS02001629           JUNCTION     0.68     1.85     8.40     0  01:50        1.85
  YS02001633           JUNCTION     0.75     2.08     8.53     0  01:52        2.08
  YS02001641           JUNCTION     0.70     2.10     8.54     0  01:52        2.10
  YS02001644           JUNCTION     0.69     1.92     8.35     0  01:52        1.92
  YS02001647           JUNCTION     0.47     1.90     8.51     0  01:52        1.90
  YS02001649           JUNCTION     0.53     2.05     8.44     0  01:52        2.05
  YS02001652           JUNCTION     0.42     2.04     8.63     0  02:00        2.04
  YS02001655           JUNCTION     0.33     1.95     8.80     0  02:00        1.95
  YS02001658           JUNCTION     0.24     1.80     8.94     0  02:00        1.80
  YS02001661           JUNCTION     0.24     1.65     9.05     0  02:00        1.64
  YS02001664           JUNCTION     0.12     1.28     9.20     0  02:00        1.27
  YS02001745           JUNCTION     0.12     1.10     8.62     0  02:00        1.09
  YS02001748           JUNCTION     0.21     1.75     8.83     0  01:53        1.50
  YS02001751           JUNCTION     0.27     1.75     8.62     0  01:53        1.66
  YS02001754           JUNCTION     0.36     1.88     8.48     0  02:00        1.88
  YS02001757           JUNCTION     0.54     2.16     8.42     0  02:00        2.16
  YS02001759           JUNCTION     0.49     2.21     8.57     0  01:52        2.21
  YS02001762           JUNCTION     0.48     2.15     8.55     0  01:52        2.15
  YS02001765           JUNCTION     0.46     2.10     8.55     0  01:52        2.10
  YS02001767           JUNCTION     0.45     2.03     8.52     0  01:52        2.03
  YS02001770           JUNCTION     0.46     1.95     8.44     0  01:52        1.95
  YS02001774           JUNCTION     0.52     2.05     8.47     0  01:52        2.05
  YS02001779           JUNCTION     0.35     1.68     8.37     0  01:49        1.68
  YS02001783           JUNCTION     0.38     1.43     7.57     0  01:49        1.28
  YS02001784           JUNCTION     0.38     1.23     7.30     0  01:49        1.17
  YS02001786           JUNCTION     0.31     0.93     6.96     0  01:49        0.90
  YS02001788           JUNCTION     0.22     0.63     6.61     0  02:00        0.63
  YS02001790           JUNCTION     0.26     0.74     6.38     0  02:00        0.73
  YS02001791           JUNCTION     0.16     0.45     5.92     0  02:00        0.44
  YS02001793           JUNCTION     0.09     0.26     5.09     0  02:12        0.25
  YS02001882           JUNCTION     0.47     1.77     8.49     0  01:52        1.77
  YS02001884           JUNCTION     0.56     1.87     8.49     0  02:00        1.87
  YS02001887           JUNCTION     0.63     2.00     8.54     0  01:52        2.00
  YS02001890           JUNCTION     0.66     1.81     8.32     0  01:49        1.81
  YS02001895           JUNCTION     0.44     1.58     8.32     0  02:11        1.58
  YS02001898           JUNCTION     0.44     1.59     8.32     0  01:52        1.59
  YS02001901           JUNCTION     0.55     1.69     8.30     0  01:49        1.68
  YS02001904           JUNCTION     0.53     1.65     8.28     0  01:52        1.65
  YS02001907           JUNCTION     0.84     1.96     8.25     0  01:49        1.96
  YS02001910           JUNCTION     0.66     2.04     8.54     0  02:03        2.04
  YS02001915           JUNCTION     0.49     2.00     8.72     0  01:59        2.00
  YS02001918           JUNCTION     0.31     1.81     8.88     0  01:49        1.75
  YS02001920           JUNCTION     0.39     2.14     9.15     0  01:50        1.85
  YS02001923           JUNCTION     0.25     2.03     9.29     0  01:50        1.65
  YS02001926           JUNCTION     0.27     1.90     9.35     0  01:50        1.58
  YS02001929           JUNCTION     0.18     1.78     9.47     0  01:50        1.31
  YS02006553           JUNCTION     0.84     2.05     8.34     0  02:00        2.05
  YS02006556           JUNCTION     0.81     2.15     8.46     0  01:52        2.15
  YS02006558           JUNCTION     0.85     2.26     8.53     0  02:00        2.26
  YS02006561           JUNCTION     0.24     1.14     7.80     0  01:49        0.95
  YS02163301           JUNCTION     0.70     2.03     8.55     0  01:52        2.03
  YS02163601           JUNCTION     0.77     2.08     8.48     0  01:52        2.08
  YS02164001           JUNCTION     0.70     2.10     8.56     0  01:52        2.10
  YSB1154              JUNCTION     0.67     2.10    11.16     0  01:52        2.10
  YSB1171              JUNCTION     0.80     1.95    10.85     0  01:46        1.95
  YSB1174              JUNCTION     0.62     1.95    11.06     0  01:52        1.95
  YSB6556              JUNCTION     0.56     1.80    10.97     0  01:52        1.80
  CC-1                 OUTFALL      0.00     0.00     0.00     0  00:00        0.00
  CC-2                 OUTFALL      0.00     0.00     0.00     0  00:00        0.00
  JK-1                 OUTFALL      0.00     0.00     0.00     0  00:00        0.00
  JK-2                 OUTFALL      0.00     0.00     0.00     0  00:00        0.00
  WSC                  OUTFALL      0.33     0.54     1.21     0  02:07        0.54
  CC-storage           STORAGE      0.48     1.42     6.92     0  02:43        1.42
  JK-storage           STORAGE      0.05     2.99     3.79     0  00:00        0.68
  XR-storage           STORAGE      7.76     9.26     7.26     0  08:00        9.26
  
  
  *******************
  Node Inflow Summary
  *******************
  
  -------------------------------------------------------------------------------------------------
                                  Maximum  Maximum                  Lateral       Total        Flow
                                  Lateral    Total  Time of Max      Inflow      Inflow     Balance
                                   Inflow   Inflow   Occurrence      Volume      Volume       Error
  Node                 Type           LPS      LPS  days hr:min    10^6 ltr    10^6 ltr     Percent
  -------------------------------------------------------------------------------------------------
  HS02004478           JUNCTION      0.00  2304.35     0  01:54           0        12.1      -0.003
  HS02004479           JUNCTION      0.00   380.59     0  01:49           0        1.17       0.074
  HS02004480           JUNCTION      0.00  2052.66     0  01:46           0        8.86       0.020
  HS02004770           JUNCTION   3588.70  3832.98     0  02:02        5.73        6.06       0.048
  HS02004777           JUNCTION      0.03   686.70     0  01:43    0.000864        2.33       0.224
  HS02004785           JUNCTION      0.15   699.74     0  01:42     0.00432        2.33       0.020
  HS02004788           JUNCTION   1233.00  1233.00     0  02:02        2.02        4.26       0.004
  HS02004792           JUNCTION   4723.14  5712.22     0  02:02           8        12.2       0.003
  HS02004799           JUNCTION    659.95  1802.05     0  02:01       0.977        8.37       0.040
  HS02004802           JUNCTION      0.00  1233.47     0  02:03           0        3.65       0.108
  HS02004807           JUNCTION    852.31  2049.04     0  02:01        1.24        4.28       0.100
  HS02004817           JUNCTION      0.60  1196.90     0  02:06      0.0173        3.09       0.546
  HS02004824           JUNCTION   1392.01  1998.25     0  02:02        2.55        3.83       0.017
  HS02004830           JUNCTION      0.15   626.16     0  02:01     0.00432        1.54       0.075
  HS02004837           JUNCTION    835.65   835.65     0  02:01        1.44        1.97       0.037
  HS02004842           JUNCTION      0.00   970.83     0  02:02           0        1.44       0.905
  HS02004848           JUNCTION   1346.63  1346.63     0  02:03        2.71        3.37      -0.008
  HS02004852           JUNCTION      0.00   955.93     0  01:46           0        2.66       0.002
  HS02004856           JUNCTION    337.72   986.15     0  01:46       0.498        3.16       0.063
  HS02004862           JUNCTION    616.08  1529.02     0  02:02        1.14         4.3       0.001
  HS02004870           JUNCTION    463.40  1280.20     0  02:12        0.68        4.48       0.013
  HS02004876           JUNCTION    533.61  1526.58     0  02:11       0.822         5.3       0.014
  HS02004881           JUNCTION    256.61  1718.34     0  02:01       0.367        5.67       0.014
  HS02004901           JUNCTION    818.72  1084.49     0  02:01        1.22        1.91       0.094
  WS02001211           JUNCTION      7.35   224.83     0  01:35       0.212        5.44       0.611
  WS02001212           JUNCTION      0.00   212.09     0  03:07           0        5.41       0.273
  WS02001213           JUNCTION      0.00   215.64     0  03:06           0        5.39       0.347
  WS02003059           JUNCTION      0.00   221.10     0  03:06           0        5.39       0.596
  WS02003060           JUNCTION     16.53  1614.03     0  02:05       0.476        16.1       0.090
  WS02003066           JUNCTION      0.00  1400.69     0  02:00           0        10.3       0.015
  WS02003067           JUNCTION      0.00  1400.07     0  02:00           0        10.3       0.042
  WS02003069           JUNCTION      0.32  1613.29     0  02:05     0.00922        16.1       0.096
  WS02003072           JUNCTION      0.00  1613.16     0  02:06           0        16.1       0.130
  WS02003073           JUNCTION      1.82  1615.15     0  02:06      0.0524        16.1       0.134
  WS02004138           JUNCTION      0.00   380.00     0  00:00           0        5.25       0.053
  WS02004139           JUNCTION      0.32   190.32     0  00:32     0.00924        5.26       0.508
  WS02004401           JUNCTION      0.00  1400.57     0  02:03           0        10.4       0.102
  WS02004402           JUNCTION      0.00  1400.07     0  02:03           0        10.4       0.103
  WS02004403           JUNCTION      0.00  1399.98     0  02:03           0        10.4       0.101
  WS02004404           JUNCTION      0.16  1400.28     0  02:03     0.00467        10.4       0.085
  WS02004405           JUNCTION      0.04  1400.88     0  02:03      0.0011        10.3       0.121
  WS02004406           JUNCTION      0.00  1400.63     0  02:00           0        10.3       0.208
  WS02004407           JUNCTION      0.00  1400.71     0  02:03           0        10.3       0.013
  WS02004409           JUNCTION      0.00  1400.01     0  02:00           0        10.3       0.030
  WS02004410           JUNCTION      0.00  1399.89     0  02:03           0        10.3       0.048
  WS02004411           JUNCTION      0.00  1399.98     0  02:03           0        10.3       0.058
  WS02004412           JUNCTION      0.00  1399.83     0  02:03           0        10.3       0.076
  WS02004413           JUNCTION      0.00  1399.81     0  02:00           0        10.3       0.139
  WS02006109           JUNCTION      1.23  1289.18     0  01:55      0.0354        10.1       0.082
  WS02006110           JUNCTION      0.00  1122.60     0  02:33           0        9.38       0.082
  WS02006111           JUNCTION      0.00  1122.42     0  02:32           0        9.37       0.009
  WS02006112           JUNCTION    714.73  1552.29     0  02:01        1.07        10.4       0.199
  WS02006113           JUNCTION      0.00  1122.57     0  02:33           0        9.37       0.023
  WS02006115           JUNCTION      0.00  1400.76     0  02:00           0        10.4       0.073
  WS02006116           JUNCTION      0.00  1400.25     0  02:03           0        10.4       0.034
  WS02006228           JUNCTION      0.00  1288.15     0  01:55           0          10       0.022
  WS02006229           JUNCTION      0.00  2304.94     0  01:54           0        14.1       0.055
  WS02006230           JUNCTION     10.28  1026.25     0  01:56       0.296        6.16       0.150
  WS02006231           JUNCTION      0.00   465.04     0  03:44           0        4.12      -0.099
  WS02006232           JUNCTION      0.00   460.68     0  03:44           0         4.1       0.118
  WS02006234           JUNCTION      0.00   457.37     0  03:44           0        4.07      -0.123
  WS02006235           JUNCTION      0.00   481.38     0  03:44           0        3.89       0.099
  WS02006238           JUNCTION      0.00   423.48     0  03:46           0         3.8      -0.058
  WS02006239           JUNCTION      0.00   422.75     0  03:46           0        3.75      -0.079
  WS02006240           JUNCTION      0.00   422.10     0  03:45           0        3.72      -0.011
  WS02006242           JUNCTION      0.00   423.28     0  03:45           0        3.72       0.008
  WS02006243           JUNCTION      0.00   423.88     0  03:45           0        3.13      -0.085
  WS02006245           JUNCTION      0.00   424.37     0  03:45           0        3.13       0.232
  WS02006247           JUNCTION      0.00   425.13     0  03:45           0        3.13       0.012
  WS02006248           JUNCTION      0.00   425.27     0  03:45           0        3.49       0.014
  WS02006249           JUNCTION      0.00  1402.72     0  02:01           0        8.26       0.045
  WS02006251           JUNCTION      0.08  1801.20     0  02:01     0.00222        8.72      -0.018
  WS02006252           JUNCTION      0.00   799.06     0  02:01           0        4.28      -0.037
  WS02006253           JUNCTION     82.92  1801.44     0  02:01       0.111         5.8       0.001
  WS02006256           JUNCTION      0.00   300.00     0  00:00           0       0.801       6.441
  WS02006280           JUNCTION      0.00  2303.81     0  01:55           0        12.1       0.009
  WS02006284           JUNCTION      0.10  2303.58     0  01:55     0.00275        12.1       0.001
  WS02006287           JUNCTION      0.00  2304.10     0  01:55           0        12.1       0.008
  WSF200               JUNCTION      0.00  1400.57     0  02:00           0        10.3       0.005
  YS02001580           JUNCTION      0.00    72.53     0  01:42           0     0.00406       0.682
  YS02001583           JUNCTION      0.00   116.93     0  01:42           0      0.0156      -2.931
  YS02001586           JUNCTION   1654.99  1655.01     0  02:05        3.21        3.22       0.033
  YS02001590           JUNCTION      0.00   318.50     0  01:52           0        1.76      -0.025
  YS02001593           JUNCTION      0.00   319.59     0  01:52           0        1.77       0.010
  YS02001596           JUNCTION      0.00   317.94     0  02:21           0        1.77       0.002
  YS02001600           JUNCTION      0.00   318.06     0  02:21           0        1.76       0.015
  YS02001601           JUNCTION   2516.51  2833.98     0  02:02        4.13         5.9       0.015
  YS02001602           JUNCTION      0.00   492.70     0  02:44           0        2.81       0.015
  YS02001605           JUNCTION      0.00   492.99     0  02:44           0        2.64       0.018
  YS02001607           JUNCTION      0.00   492.99     0  01:41           0        2.64       0.070
  YS02001610           JUNCTION      0.00   955.20     0  02:05           0        3.44       0.070
  YS02001613           JUNCTION      0.00   618.95     0  02:05           0        2.67       0.060
  YS02001616           JUNCTION      0.00   618.96     0  02:05           0        2.67       0.013
  YS02001619           JUNCTION   2801.13  2801.13     0  02:05        5.02        6.88      -0.001
  YS02001622           JUNCTION      0.00  1053.72     0  02:08           0        5.52       0.001
  YS02001625           JUNCTION      0.00  1505.28     0  02:07           0        6.04       0.152
  YS02001629           JUNCTION      0.00  1080.94     0  02:02           0        4.64       0.019
  YS02001633           JUNCTION   1948.13  1948.13     0  02:02        3.15        6.92       0.051
  YS02001641           JUNCTION      0.00  1372.59     0  01:48           0        6.07       0.047
  YS02001644           JUNCTION   1650.05  3046.24     0  02:01        2.61         8.8       0.038
  YS02001647           JUNCTION      0.00  1748.91     0  01:48           0        7.08       0.004
  YS02001649           JUNCTION      0.00  2023.35     0  01:49           0        9.49       0.005
  YS02001652           JUNCTION      0.00  1680.46     0  02:01           0        2.54      -0.057
  YS02001655           JUNCTION      0.15  1679.23     0  02:01     0.00443        2.54      -0.011
  YS02001658           JUNCTION      0.00  1677.78     0  02:01           0        2.54      -0.001
  YS02001661           JUNCTION      0.00  1676.69     0  02:01           0        2.54       0.011
  YS02001664           JUNCTION   1675.86  1675.86     0  02:01        2.54        2.54      -0.007
  YS02001745           JUNCTION    985.90   985.90     0  02:01        1.42        1.42       0.070
  YS02001748           JUNCTION      0.04   996.27     0  02:01      0.0013        1.43      -0.099
  YS02001751           JUNCTION      0.01   995.77     0  02:01    0.000317        1.43       0.019
  YS02001754           JUNCTION      0.26   996.48     0  02:01     0.00749        1.44      -0.051
  YS02001757           JUNCTION      0.00  3666.97     0  02:01           0          15       0.029
  YS02001759           JUNCTION   1444.52  1564.54     0  02:04        2.08        4.16      -0.005
  YS02001762           JUNCTION      0.00   808.49     0  02:12           0        2.08       0.008
  YS02001765           JUNCTION      0.00   807.97     0  02:12           0        2.08       0.006
  YS02001767           JUNCTION      0.54   807.58     0  02:12      0.0154        2.08       0.005
  YS02001770           JUNCTION   1983.76  1983.76     0  02:01        3.03        3.08      -0.002
  YS02001774           JUNCTION      0.00   851.70     0  02:05           0       0.738       0.174
  YS02001779           JUNCTION      0.01   851.56     0  02:04    0.000144       0.692      -0.062
  YS02001783           JUNCTION      0.00  1187.06     0  02:00           0        5.31       0.005
  YS02001784           JUNCTION      1.06  1188.32     0  02:01      0.0305        5.34       0.009
  YS02001786           JUNCTION      0.06  1188.66     0  02:00     0.00162        5.34       0.013
  YS02001788           JUNCTION      0.07  1190.80     0  02:00     0.00204        5.34       0.005
  YS02001790           JUNCTION      0.15  1205.48     0  02:01     0.00446        5.34      -0.004
  YS02001791           JUNCTION      0.00  1314.09     0  02:00           0        5.34      -0.002
  YS02001793           JUNCTION      0.00  1287.03     0  02:01           0        5.34      -0.054
  YS02001882           JUNCTION      0.00    40.91     0  01:46           0      0.0131       5.115
  YS02001884           JUNCTION      0.00    40.51     0  01:45           0      0.0488       5.319
  YS02001887           JUNCTION   1511.83  1512.07     0  02:01        2.12        2.15       0.208
  YS02001890           JUNCTION      0.00  1512.35     0  02:01           0        2.11       0.243
  YS02001895           JUNCTION      0.00   517.44     0  02:00           0         1.6       0.104
  YS02001898           JUNCTION      0.00   517.61     0  02:10           0        1.59       0.013
  YS02001901           JUNCTION      0.00   517.51     0  02:07           0         1.6       0.204
  YS02001904           JUNCTION      0.00   517.44     0  02:07           0         1.6       0.178
  YS02001907           JUNCTION      0.00  3303.12     0  02:01           0        5.95       0.302
  YS02001910           JUNCTION      0.00  1992.96     0  02:05           0        4.05       0.177
  YS02001915           JUNCTION   1657.37  2535.84     0  02:02        2.66        4.25       0.037
  YS02001918           JUNCTION      0.00   880.69     0  02:05           0        1.61       0.008
  YS02001920           JUNCTION      2.87   879.68     0  02:05      0.0827         1.6       0.058
  YS02001923           JUNCTION      0.04   875.68     0  02:02     0.00109         1.5      -0.022
  YS02001926           JUNCTION      0.05   876.05     0  02:02      0.0015        1.49       0.036
  YS02001929           JUNCTION    875.55   875.55     0  02:02        1.48        1.48      -0.043
  YS02006553           JUNCTION      0.00   794.05     0  02:01           0        2.99       0.396
  YS02006556           JUNCTION      0.00   791.99     0  02:01           0           3       0.272
  YS02006558           JUNCTION   1977.20  1977.20     0  02:01        2.97        5.64       0.063
  YS02006561           JUNCTION      0.00  1187.23     0  02:00           0        5.31      -0.001
  YS02163301           JUNCTION      0.00  1080.44     0  02:02           0        4.64       0.034
  YS02163601           JUNCTION      0.11  1372.96     0  01:48     0.00317        6.06       0.083
  YS02164001           JUNCTION      0.00  1373.03     0  01:48           0        6.06       0.041
  YSB1154              JUNCTION    855.85   855.85     0  02:01        1.31        1.31       0.111
  YSB1171              JUNCTION      0.00  1593.91     0  02:01           0        2.57       0.250
  YSB1174              JUNCTION    715.57   715.57     0  02:01       0.989       0.989       0.126
  YSB6556              JUNCTION      0.00   725.69     0  02:05           0        1.29       0.096
  CC-1                 OUTFALL       0.00   683.00     0  00:00           0        6.56       0.000
  CC-2                 OUTFALL       0.00   683.00     0  00:00           0        6.56       0.000
  JK-1                 OUTFALL       0.00  1000.00     0  00:00           0        2.62       0.000
  JK-2                 OUTFALL       0.00  1000.00     0  00:00           0        2.62       0.000
  WSC                  OUTFALL       0.00  1615.62     0  02:07           0        16.1       0.000
  CC-storage           STORAGE       0.00  3667.84     0  02:01           0        17.2      -0.298
  JK-storage           STORAGE       0.00  1347.28     0  01:58           0         5.5      -8.820
  XR-storage           STORAGE     200.00   200.00     0  00:00        5.76        6.36       0.001
  
  
  **********************
  Node Surcharge Summary
  **********************
  
  Surcharging occurs when water rises above the top of the highest conduit.
  ---------------------------------------------------------------------
                                               Max. Height   Min. Depth
                                   Hours       Above Crown    Below Rim
  Node                 Type      Surcharged         Meters       Meters
  ---------------------------------------------------------------------
  HS02004478           JUNCTION        0.91          0.804        0.136
  HS02004479           JUNCTION        1.08          0.955        0.095
  HS02004480           JUNCTION        1.13          1.056        0.044
  HS02004770           JUNCTION        1.00          0.720        0.000
  HS02004777           JUNCTION        1.01          0.780        0.000
  HS02004785           JUNCTION        0.95          0.790        0.000
  HS02004788           JUNCTION        0.93          0.720        0.000
  HS02004792           JUNCTION        1.10          0.900        0.000
  HS02004799           JUNCTION        1.27          1.060        0.000
  HS02004802           JUNCTION        1.15          1.117        0.093
  HS02004807           JUNCTION        1.11          1.220        0.000
  HS02004817           JUNCTION        1.71          1.740        0.000
  HS02004824           JUNCTION        0.93          1.310        0.000
  HS02004830           JUNCTION        0.90          1.330        0.000
  HS02004837           JUNCTION        0.84          1.340        0.000
  HS02004842           JUNCTION        1.02          1.520        0.000
  HS02004848           JUNCTION        0.80          1.370        0.000
  HS02004852           JUNCTION        0.83          1.420        0.000
  HS02004856           JUNCTION        0.82          1.300        0.000
  HS02004862           JUNCTION        0.87          1.300        0.000
  HS02004870           JUNCTION        0.89          1.400        0.000
  HS02004876           JUNCTION        0.98          1.560        0.000
  HS02004881           JUNCTION        0.95          1.343        0.107
  HS02004901           JUNCTION        1.01          0.720        0.000
  WS02004401           JUNCTION        1.88          1.130        0.530
  WS02004402           JUNCTION        1.91          1.052        0.688
  WS02004403           JUNCTION        1.92          0.978        1.052
  WS02004404           JUNCTION        2.09          0.959        1.821
  WS02004405           JUNCTION        2.05          0.906        1.894
  WS02004406           JUNCTION        2.02          0.767        1.683
  WS02004407           JUNCTION        0.19          0.085        2.255
  WS02004409           JUNCTION        1.54          0.512        1.848
  WS02004410           JUNCTION        1.52          0.430        2.110
  WS02004411           JUNCTION        1.45          0.282        2.248
  WS02004412           JUNCTION        1.30          0.155        2.155
  WS02004413           JUNCTION        1.68          0.175        2.025
  WS02006109           JUNCTION        2.60          1.820        0.000
  WS02006110           JUNCTION        2.38          1.850        0.000
  WS02006111           JUNCTION        1.64          1.568        0.302
  WS02006112           JUNCTION        2.43          1.680        0.000
  WS02006113           JUNCTION        1.66          1.922        0.008
  WS02006115           JUNCTION        1.79          1.272        0.978
  WS02006116           JUNCTION        1.81          1.174        1.116
  WS02006228           JUNCTION        2.58          2.200        0.000
  WS02006229           JUNCTION        1.52          1.053        0.017
  WS02006230           JUNCTION        2.14          1.570        0.000
  WS02006231           JUNCTION        2.38          1.530        0.000
  WS02006232           JUNCTION        2.62          1.480        0.000
  WS02006234           JUNCTION        2.40          1.240        0.000
  WS02006235           JUNCTION        2.49          1.290        0.000
  WS02006238           JUNCTION        2.55          1.430        0.000
  WS02006239           JUNCTION        2.49          1.290        0.000
  WS02006240           JUNCTION        2.49          1.390        0.000
  WS02006242           JUNCTION        2.61          0.820        0.000
  WS02006243           JUNCTION        2.50          0.770        0.000
  WS02006245           JUNCTION        2.49          0.850        0.000
  WS02006247           JUNCTION        2.52          0.760        0.000
  WS02006248           JUNCTION        2.48          0.380        0.000
  WS02006249           JUNCTION        2.51          0.390        0.000
  WS02006251           JUNCTION        2.33          1.180        0.000
  WS02006252           JUNCTION        2.72          1.100        0.000
  WS02006253           JUNCTION        2.34          2.274        0.206
  WS02006256           JUNCTION        6.17          2.050        0.000
  WS02006280           JUNCTION        1.28          0.712        0.068
  WS02006284           JUNCTION        1.17          0.800        0.000
  WS02006287           JUNCTION        1.02          0.867        0.023
  YS02001580           JUNCTION        1.02          0.450        0.000
  YS02001583           JUNCTION        1.03          0.500        0.000
  YS02001586           JUNCTION        1.15          0.510        0.000
  YS02001590           JUNCTION        1.24          0.750        0.000
  YS02001593           JUNCTION        1.24          0.708        0.132
  YS02001596           JUNCTION        1.39          1.070        0.000
  YS02001600           JUNCTION        1.54          1.190        0.000
  YS02001601           JUNCTION        1.80          1.440        0.000
  YS02001602           JUNCTION        1.72          1.270        0.000
  YS02001605           JUNCTION        1.68          1.180        0.000
  YS02001607           JUNCTION        1.18          0.669        0.011
  YS02001610           JUNCTION        1.22          0.680        0.000
  YS02001613           JUNCTION        1.17          0.700        0.000
  YS02001616           JUNCTION        1.12          0.610        0.000
  YS02001619           JUNCTION        1.10          0.610        0.000
  YS02001622           JUNCTION        1.09          0.585        0.035
  YS02001625           JUNCTION        1.33          0.780        0.000
  YS02001629           JUNCTION        1.00          0.470        0.000
  YS02001633           JUNCTION        1.34          1.060        0.000
  YS02001641           JUNCTION        1.24          1.100        0.000
  YS02001644           JUNCTION        1.18          0.920        0.000
  YS02001647           JUNCTION        0.85          0.900        0.000
  YS02001649           JUNCTION        0.99          1.050        0.000
  YS02001652           JUNCTION        0.73          1.009        0.121
  YS02001655           JUNCTION        0.53          0.954        0.246
  YS02001658           JUNCTION        0.39          0.801        0.499
  YS02001661           JUNCTION        0.21          0.576        0.814
  YS02001664           JUNCTION        0.06          0.278        1.032
  YS02001745           JUNCTION        0.02          0.104        1.246
  YS02001748           JUNCTION        0.28          0.672        0.518
  YS02001751           JUNCTION        0.42          0.745        0.455
  YS02001754           JUNCTION        0.55          0.826        0.324
  YS02001757           JUNCTION        1.04          1.161        0.049
  YS02001759           JUNCTION        0.91          1.210        0.000
  YS02001762           JUNCTION        0.87          1.150        0.000
  YS02001765           JUNCTION        0.81          1.100        0.000
  YS02001767           JUNCTION        0.77          1.030        0.000
  YS02001770           JUNCTION        0.74          0.920        0.000
  YS02001774           JUNCTION        0.84          1.050        0.000
  YS02001779           JUNCTION        0.57          0.680        0.000
  YS02001783           JUNCTION        0.82          0.633        0.967
  YS02001784           JUNCTION        0.78          0.428        1.062
  YS02001786           JUNCTION        0.65          0.126        1.304
  YS02001882           JUNCTION        0.74          0.773        0.057
  YS02001884           JUNCTION        0.75          0.815        0.055
  YS02001887           JUNCTION        0.80          0.950        0.000
  YS02001890           JUNCTION        0.82          0.760        0.000
  YS02001895           JUNCTION        0.73          0.576        0.174
  YS02001898           JUNCTION        0.72          0.557        0.183
  YS02001901           JUNCTION        0.78          0.688        0.182
  YS02001904           JUNCTION        0.77          0.649        0.201
  YS02001907           JUNCTION        1.11          0.950        0.000
  YS02001910           JUNCTION        0.85          1.036        0.064
  YS02001915           JUNCTION        0.74          1.000        0.000
  YS02001918           JUNCTION        0.63          0.810        0.000
  YS02001920           JUNCTION        0.65          1.140        0.000
  YS02001923           JUNCTION        0.28          0.820        0.000
  YS02001926           JUNCTION        0.32          0.900        0.000
  YS02001929           JUNCTION        0.19          0.780        0.000
  YS02006553           JUNCTION        1.14          1.053        0.137
  YS02006556           JUNCTION        0.98          1.106        0.244
  YS02006558           JUNCTION        0.96          1.160        0.240
  YS02006561           JUNCTION        0.60          0.341        0.809
  YS02163301           JUNCTION        1.32          1.030        0.000
  YS02163601           JUNCTION        1.38          1.080        0.000
  YS02164001           JUNCTION        1.25          1.100        0.000
  YSB1154              JUNCTION        1.48          1.400        0.000
  YSB1171              JUNCTION        1.48          1.100        0.000
  YSB1174              JUNCTION        1.33          1.250        0.000
  YSB6556              JUNCTION        1.22          1.100        0.000
  
  
  *********************
  Node Flooding Summary
  *********************
  
  Flooding refers to all water that overflows a node, whether it ponds or not.
  --------------------------------------------------------------------------
                                                             Total   Maximum
                                 Maximum   Time of Max       Flood    Ponded
                        Hours       Rate    Occurrence      Volume     Depth
  Node                 Flooded       LPS   days hr:min    10^6 ltr    Meters
  --------------------------------------------------------------------------
  HS02004770              0.74   3566.88      0  02:02       3.123     0.000
  HS02004777              0.01     61.68      0  01:43       0.000     0.000
  HS02004785              0.01     78.35      0  01:43       0.000     0.000
  HS02004788              0.01    112.30      0  01:43       0.000     0.000
  HS02004792              0.74   4569.85      0  02:02       4.773     0.000
  HS02004799              0.42    497.06      0  02:01       0.345     0.000
  HS02004807              0.35    816.05      0  02:01       0.599     0.000
  HS02004817              0.01     10.59      0  01:46       0.000     0.000
  HS02004824              0.30    802.14      0  02:02       0.508     0.000
  HS02004830              0.01     28.59      0  01:46       0.000     0.000
  HS02004837              0.01    114.22      0  01:46       0.000     0.000
  HS02004842              0.29    970.78      0  02:02       0.545     0.000
  HS02004848              0.01    245.23      0  01:46       0.000     0.000
  HS02004852              0.01    243.25      0  01:46       0.000     0.000
  HS02004856              0.01      1.31      0  02:00       0.000     0.000
  HS02004862              0.26   1048.05      0  02:02       0.499     0.000
  HS02004870              0.01      0.85      0  02:00       0.000     0.000
  HS02004876              0.01      0.34      0  02:00       0.000     0.000
  HS02004901              0.85   1084.29      0  02:01       1.665     0.000
  WS02006109              0.81    451.09      0  02:02       0.680     0.000
  WS02006110              0.01      0.52      0  01:39       0.000     0.000
  WS02006112              0.11    153.34      0  02:01       0.033     0.000
  WS02006228              0.01      1.32      0  01:52       0.000     0.000
  WS02006230              1.18    573.46      0  01:54       1.778     0.000
  WS02006231              0.01      0.25      0  02:43       0.000     0.000
  WS02006232              0.37      7.84      0  02:43       0.000     0.000
  WS02006234              1.26     85.91      0  02:10       0.260     0.000
  WS02006235              0.01     30.77      0  01:39       0.000     0.000
  WS02006238              0.01     11.70      0  01:29       0.000     0.000
  WS02006239              0.01      5.74      0  01:29       0.000     0.000
  WS02006240              0.01      6.86      0  02:43       0.000     0.000
  WS02006242              1.47    130.25      0  02:16       0.583     0.000
  WS02006243              0.01    222.59      0  01:27       0.001     0.000
  WS02006245              0.01    120.62      0  01:27       0.000     0.000
  WS02006247              0.01    141.34      0  01:27       0.000     0.000
  WS02006248              1.68    340.06      0  01:37       1.862     0.000
  WS02006249              2.30   1341.82      0  02:01       6.275     0.000
  WS02006251              0.01      0.81      0  02:00       0.000     0.000
  WS02006252              0.89    798.74      0  02:01       1.363     0.000
  WS02006256              0.75    298.52      0  01:37       0.625     0.000
  WS02006284              0.01      0.25      0  01:52       0.000     0.000
  YS02001580              0.01     33.17      0  01:42       0.000     0.000
  YS02001583              0.01     49.54      0  01:42       0.000     0.000
  YS02001586              0.85   1337.01      0  02:05       1.444     0.000
  YS02001590              0.01      6.18      0  01:42       0.000     0.000
  YS02001596              0.01      0.20      0  02:43       0.000     0.000
  YS02001600              0.01      4.92      0  02:43       0.000     0.000
  YS02001601              1.04   2435.78      0  02:02       3.086     0.000
  YS02001602              0.83     61.97      0  01:52       0.171     0.000
  YS02001605              0.01      0.25      0  01:39       0.000     0.000
  YS02001610              0.75    954.99      0  02:05       1.582     0.000
  YS02001613              0.01      0.20      0  02:43       0.000     0.000
  YS02001616              0.10      5.91      0  02:13       0.000     0.000
  YS02001619              0.26   1128.80      0  02:05       0.558     0.000
  YS02001625              0.67   1505.15      0  02:09       2.254     0.000
  YS02001629              0.33    631.08      0  02:02       0.337     0.000
  YS02001633              0.01      1.87      0  02:00       0.000     0.000
  YS02001641              0.01      0.63      0  01:52       0.000     0.000
  YS02001644              0.37   3045.98      0  02:01       1.830     0.000
  YS02001647              0.01      0.75      0  01:52       0.000     0.000
  YS02001649              0.01     10.37      0  02:00       0.000     0.000
  YS02001759              0.01      1.58      0  02:00       0.000     0.000
  YS02001762              0.01      1.30      0  01:52       0.000     0.000
  YS02001765              0.01      1.26      0  01:52       0.000     0.000
  YS02001767              0.01      0.98      0  01:52       0.000     0.000
  YS02001770              0.16   1033.88      0  02:01       0.302     0.000
  YS02001774              0.01      1.60      0  01:52       0.000     0.000
  YS02001779              0.33    851.36      0  02:04       0.672     0.000
  YS02001887              0.01      0.85      0  02:00       0.000     0.000
  YS02001890              0.36    995.91      0  02:01       0.507     0.000
  YS02001907              0.57   3303.09      0  02:01       3.247     0.000
  YS02001915              0.14    542.92      0  02:02       0.176     0.000
  YS02001918              0.01     86.46      0  01:50       0.000     0.000
  YS02001920              0.01     17.66      0  01:50       0.000     0.000
  YS02001923              0.01     83.70      0  01:50       0.000     0.000
  YS02001926              0.01     29.48      0  01:50       0.000     0.000
  YS02001929              0.01    166.56      0  01:50       0.000     0.000
  YS02163301              0.01      0.48      0  01:52       0.000     0.000
  YS02163601              0.01      0.49      0  01:52       0.000     0.000
  YS02164001              0.01      1.24      0  01:52       0.000     0.000
  YSB1154                 0.10    130.20      0  02:01       0.024     0.000
  YSB1171                 0.57   1593.13      0  02:01       1.728     0.000
  YSB1174                 0.01      1.33      0  02:00       0.000     0.000
  YSB6556                 0.13     85.86      0  02:05       0.034     0.000
  
  
  **********************
  Storage Volume Summary
  **********************
  
  --------------------------------------------------------------------------------------------------
                         Average     Avg  Evap Exfil       Maximum     Max    Time of Max    Maximum
                          Volume    Pcnt  Pcnt  Pcnt        Volume    Pcnt     Occurrence    Outflow
  Storage Unit           1000 m3    Full  Loss  Loss       1000 m3    Full    days hr:min        LPS
  --------------------------------------------------------------------------------------------------
  CC-storage               1.326      21     0     0         3.969      62       0  02:43    1783.53
  JK-storage               0.003       1     0     0         0.150      52       0  00:00    2300.00
  XR-storage               0.931      65     0     0         1.111      77       0  08:00     380.00
  
  
  ***********************
  Outfall Loading Summary
  ***********************
  
  -----------------------------------------------------------
                         Flow       Avg       Max       Total
                         Freq      Flow      Flow      Volume
  Outfall Node           Pcnt       LPS       LPS    10^6 ltr
  -----------------------------------------------------------
  CC-1                  56.50    683.00    683.00       6.559
  CC-2                  56.50    683.00    683.00       6.559
  JK-1                  16.24    994.77   1000.00       2.617
  JK-2                  16.24    994.77   1000.00       2.617
  WSC                   99.95    774.91   1615.62      16.076
  -----------------------------------------------------------
  System                49.09   4130.44   1615.62      34.427
  
  
  ********************
  Link Flow Summary
  ********************
  
  -----------------------------------------------------------------------------
                                 Maximum  Time of Max   Maximum    Max/    Max/
                                  |Flow|   Occurrence   |Veloc|    Full    Full
  Link                 Type          LPS  days hr:min     m/sec    Flow   Depth
  -----------------------------------------------------------------------------
  1                    CONDUIT   1615.62     0  02:07      3.76    0.56    0.54
  HS02004478WS02006287 CONDUIT   2304.10     0  01:55      2.60    0.64    1.00
  HS02004479HS02004480 CONDUIT    381.11     0  01:48      0.54    0.37    1.00
  HS02004480HS02004478 CONDUIT   2051.88     0  01:46      2.93    8.64    1.00
  HS02004770HS02004777 CONDUIT    686.67     0  01:43      0.98    1.26    1.00
  HS02004777HS02004785 CONDUIT    699.59     0  01:42      1.06    0.86    1.00
  HS02004785HS02004788 CONDUIT    651.01     0  01:44      1.36    4.91    1.00
  HS02004788HS02004792 CONDUIT   1025.18     0  02:01      1.46    0.68    1.00
  HS02004792HS02004799 CONDUIT   1615.56     0  01:44      2.31    0.99    1.00
  HS02004799HS02004480 CONDUIT   1734.54     0  01:44      2.48    2.19    1.00
  HS02004802HS02004478 CONDUIT   1233.73     0  02:03      1.76    1.09    1.00
  HS02004807HS02004802 CONDUIT   1233.47     0  02:03      1.76    2.36    1.00
  HS02004817HS02004807 CONDUIT   1196.90     0  02:12      1.71    0.71    1.00
  HS02004817HS02004824 CONDUIT   1196.30     0  02:06      1.71    0.54    1.00
  HS02004824HS02004830 CONDUIT    626.62     0  02:01      0.90    0.82    1.00
  HS02004830HS02004837 CONDUIT    626.01     0  02:01      0.89    0.62    1.00
  HS02004837HS02004842 CONDUIT    720.44     0  01:46      1.03    0.43    1.00
  HS02004842HS02004848 CONDUIT    755.05     0  02:02      1.08    0.44    1.00
  HS02004848HS02004852 CONDUIT    955.93     0  01:46      1.52    1.08    1.00
  HS02004852HS02004856 CONDUIT    917.36     0  01:46      1.42    1.05    1.00
  HS02004856HS02004862 CONDUIT    947.22     0  01:46      1.63    0.94    1.00
  HS02004862HS02004870 CONDUIT   1109.85     0  02:13      1.74    1.20    1.00
  HS02004870HS02004876 CONDUIT   1280.35     0  02:12      1.83    0.85    1.00
  HS02004876HS02004881 CONDUIT   1525.24     0  02:11      2.18   16.22    1.00
  HS02004881HS02006253 CONDUIT   1718.52     0  02:01      2.76    0.34    1.00
  HS02004901HS02004770 CONDUIT    265.79     0  02:27      0.38    1.00    1.00
  WS02001211WS02001212 CONDUIT    212.09     0  03:07      0.54    0.16    0.72
  WS02001212WS02001213 CONDUIT    215.64     0  03:06      1.04    0.33    0.59
  WS02001213WS02003059 CONDUIT    221.10     0  03:06      0.47    0.36    0.92
  WS02003059WS02003060 CONDUIT    226.05     0  03:05      0.65    0.15    0.84
  WS02003060WS02003069 CONDUIT   1612.97     0  02:05      2.12    0.63    0.64
  WS02003066WSF200     CONDUIT   1400.57     0  02:00      3.30    0.24    0.40
  WS02003067WS02003066 CONDUIT   1400.69     0  02:00      2.09    0.45    0.58
  WS02003069WS02003072 CONDUIT   1613.16     0  02:06      1.94    0.78    0.69
  WS02003072WS02003073 CONDUIT   1613.33     0  02:06      2.11    3.48    0.64
  WS02004138WS02004139 CONDUIT    190.00     0  00:32      2.16    0.04    0.43
  WS02004139WS02001211 CONDUIT    217.48     0  01:35      0.54    0.27    0.63
  WS02004401WS02004402 CONDUIT   1400.07     0  02:03      1.78    1.68    1.00
  WS02004402WS02004403 CONDUIT   1399.98     0  02:03      1.78    2.01    1.00
  WS02004403WS02004404 CONDUIT   1400.12     0  02:03      1.78    1.01    1.00
  WS02004404WS02004405 CONDUIT   1400.84     0  02:03      1.78   13.72    1.00
  WS02004405WS02004406 CONDUIT   1400.63     0  02:00      1.78    2.76    1.00
  WS02004406WS02004407 CONDUIT   1400.71     0  02:03      1.82    0.63    1.00
  WS02004407WS02004409 CONDUIT   1400.01     0  02:00      1.95    0.50    1.00
  WS02004409WS02004410 CONDUIT   1399.89     0  02:03      1.78    1.81    1.00
  WS02004410WS02004411 CONDUIT   1399.98     0  02:03      1.78    1.91    1.00
  WS02004411WS02004412 CONDUIT   1399.83     0  02:03      1.78    1.99    1.00
  WS02004412WS02004413 CONDUIT   1399.81     0  02:00      1.78    0.94    1.00
  WS02004413WS02003067 CONDUIT   1400.07     0  02:00      2.13    0.60    0.78
  WS02006109WS02006110 CONDUIT   1122.60     0  02:33      2.23    2.16    1.00
  WS02006110WS02006113 CONDUIT   1122.57     0  02:33      2.23    1.02    1.00
  WS02006111WS02006112 CONDUIT   1122.66     0  02:32      2.23    0.53    1.00
  WS02006112WS02006115 CONDUIT   1400.76     0  02:00      1.78    0.83    1.00
  WS02006113WS02006111 CONDUIT   1122.42     0  02:32      2.69    1.35    1.00
  WS02006115WS02006116 CONDUIT   1400.25     0  02:03      1.78    1.80    1.00
  WS02006116WS02004401 CONDUIT   1400.57     0  02:03      1.78    1.93    1.00
  WS02006228WS02006109 CONDUIT   1287.95     0  01:55      2.56    5.63    1.00
  WS02006229WS02006228 CONDUIT   1288.15     0  01:55      2.56    4.27    1.00
  WS02006230WS02006229 CONDUIT   1015.97     0  01:56      2.64   22.61    1.00
  WS02006231WS02006230 CONDUIT    469.57     0  03:44      1.38    7.12    1.00
  WS02006232WS02006231 CONDUIT    465.04     0  03:44      1.21    0.97    1.00
  WS02006234WS02006232 CONDUIT    460.68     0  03:44      1.39    0.93    1.00
  WS02006235WS02006234 CONDUIT    457.37     0  03:44      1.21    4.83    1.00
  WS02006238WS02006235 CONDUIT    432.30     0  03:44      1.45    0.96    1.00
  WS02006239WS02006238 CONDUIT    423.48     0  03:46      1.10    1.36    1.00
  WS02006240WS02006239 CONDUIT    422.75     0  03:46      1.25    1.33    1.00
  WS02006242WS02006240 CONDUIT    422.10     0  03:45      1.15    1.68    1.00
  WS02006243WS02006242 CONDUIT    423.28     0  03:45      1.32    0.90    1.00
  WS02006245WS02006243 CONDUIT    423.88     0  03:45      1.38    1.25    1.00
  WS02006247WS02006245 CONDUIT    424.37     0  03:45      1.37    3.36    1.00
  WS02006248WS02006247 CONDUIT    425.13     0  03:45      1.41    0.93    1.00
  WS02006249WS02006248 CONDUIT    425.27     0  03:45      1.38    2.33    1.00
  WS02006251WS02006249 CONDUIT   1402.72     0  02:01      3.64    4.04    1.00
  WS02006252WS02006251 CONDUIT    411.73     0  01:28      4.83    1.51    1.00
  WS02006253WS02006251 CONDUIT   1801.12     0  02:01      4.68    5.40    1.00
  WS02006256WS02006235 CONDUIT    288.93     0  00:00      4.23    3.06    1.00
  WS02006280WS02006229 CONDUIT   2304.94     0  01:54      4.56    0.49    1.00
  WS02006284WS02006280 CONDUIT   2303.81     0  01:55      3.02    0.96    1.00
  WS02006287WS02006284 CONDUIT   2303.48     0  01:55      2.93    1.07    1.00
  WSF200WS02003060     CONDUIT   1401.63     0  01:59      2.42    0.31    0.53
  YS02001580YS02001583 CONDUIT     72.53     0  01:42      0.51    0.28    1.00
  YS02001583YS02001586 CONDUIT    116.93     0  01:42      0.49    0.18    1.00
  YS02001586YS02001590 CONDUIT    318.50     0  01:52      1.28    0.56    1.00
  YS02001590YS02001593 CONDUIT    319.59     0  01:52      1.13    2.01    1.00
  YS02001593YS02001596 CONDUIT    317.94     0  02:21      1.77    0.50    1.00
  YS02001596YS02001600 CONDUIT    318.06     0  02:21      1.27    0.62    1.00
  YS02001600YS02001601 CONDUIT    318.19     0  02:13      1.13    0.55    1.00
  YS02001601YS02001602 CONDUIT    492.70     0  02:44      1.74    1.78    1.00
  YS02001602YS02001605 CONDUIT    492.99     0  02:44      1.74   10.43    1.00
  YS02001605YS02001607 CONDUIT    492.99     0  01:41      1.74    2.70    1.00
  YS02001607YS02001610 CONDUIT    493.91     0  01:41      0.63    0.47    1.00
  YS02001610YS02001613 CONDUIT    619.00     0  02:05      0.79    0.71    1.00
  YS02001613YS02001616 CONDUIT    618.95     0  02:05      0.79    0.53    1.00
  YS02001616YS02001619 CONDUIT    618.96     0  02:05      0.79    1.07    1.00
  YS02001619YS02001622 CONDUIT   1053.72     0  02:08      1.34    1.55    1.00
  YS02001622YS02001625 CONDUIT   1053.55     0  02:07      1.34    0.56    1.00
  YS02001625YS02001629 CONDUIT    936.72     0  01:47      1.19    0.45    1.00
  YS02001629YS02163301 CONDUIT   1080.94     0  02:02      1.38    1.33    1.00
  YS02001633YS02163601 CONDUIT   1372.85     0  01:48      1.75    1.44    1.00
  YS02001641YS02001644 CONDUIT   1372.80     0  01:48      1.75    4.44    1.00
  YS02001644YS02001647 CONDUIT   1748.91     0  01:48      2.23    1.03    1.00
  YS02001647YS02001649 CONDUIT   1761.00     0  01:48      2.30    0.93    1.00
  YS02001649YS02001757 CONDUIT   2023.39     0  01:49      2.58    1.23    1.00
  YS02001652YS02001649 CONDUIT   1681.55     0  02:01      2.14    0.83    1.00
  YS02001655YS02001652 CONDUIT   1680.46     0  02:01      2.14    0.82    1.00
  YS02001658YS02001655 CONDUIT   1679.08     0  02:01      2.14    0.71    1.00
  YS02001661YS02001658 CONDUIT   1677.78     0  02:01      2.27    0.66    1.00
  YS02001664YS02001661 CONDUIT   1676.69     0  02:01      2.27    0.53    1.00
  YS02001745YS02001748 CONDUIT    996.22     0  02:01      2.07    0.38    1.00
  YS02001748YS02001751 CONDUIT    995.76     0  02:01      1.59    0.50    1.00
  YS02001751YS02001754 CONDUIT    996.22     0  02:01      1.32    0.48    1.00
  YS02001754YS02001757 CONDUIT    996.80     0  02:01      1.27    0.40    1.00
  YS02001757CaochengTiaoxuchi CONDUIT   3667.84     0  02:01      6.54    1.59    1.00
  YS02001759YS02001757 CONDUIT   1564.28     0  02:04      1.99    1.11    1.00
  YS02001762YS02001759 CONDUIT    808.60     0  02:12      1.03    0.93    1.00
  YS02001765YS02001762 CONDUIT    808.49     0  02:12      1.03    0.76    1.00
  YS02001767YS02001765 CONDUIT    807.97     0  02:12      1.03    1.02    1.00
  YS02001770YS02001767 CONDUIT    807.04     0  02:12      1.03    3.20    1.00
  YS02001774YS02001770 CONDUIT    851.70     0  02:05      1.08    0.54    1.00
  YS02001779YS02001774 CONDUIT    851.55     0  02:04      1.08    0.43    1.00
  YS02001783YS02001784 CONDUIT   1187.26     0  02:01      2.36    1.64    1.00
  YS02001784YS02001785 CONDUIT   1188.61     0  02:00      2.36    2.77    1.00
  YS02001786YS02001788 CONDUIT   1190.73     0  02:00      2.53    2.29    0.90
  YS02001788YS02001790 CONDUIT   1205.33     0  02:01      2.74    0.89    0.85
  YS02001790YS02001791 CONDUIT   1314.09     0  02:00      3.44    1.43    0.71
  YS02001791YS02001793 CONDUIT   1287.03     0  02:01      6.46    0.55    0.44
  YS02001793JiankangQianchi CONDUIT   1347.28     0  01:58     24.21    0.11    0.50
  YS02001882YS02001884 CONDUIT     40.91     0  01:46      0.20    0.05    1.00
  YS02001884YS02001887 CONDUIT     40.51     0  01:45      0.14    0.05    1.00
  YS02001887YS02001890 CONDUIT   1512.35     0  02:01      1.93    2.59    1.00
  YS02001890YS02001895 CONDUIT    517.44     0  02:00      0.66    0.24    1.00
  YS02001895YS02001898 CONDUIT    517.61     0  02:10      0.66    0.90    1.00
  YS02001898YS02001901 CONDUIT    517.51     0  02:07      0.66    0.33    1.00
  YS02001901YS02001904 CONDUIT    517.44     0  02:07      0.66    0.80    1.00
  YS02001904YS02001907 CONDUIT    518.31     0  02:10      0.66    0.18    1.00
  YS02001907YS02006553 CONDUIT    794.52     0  02:01      0.88    0.93    1.00
  YS02001910YS02001907 CONDUIT   1992.85     0  02:06      2.54    1.12    1.00
  YS02001915YS02001910 CONDUIT   1992.96     0  02:05      2.54    0.99    1.00
  YS02001918YS02001915 CONDUIT    881.47     0  02:05      1.12    0.49    1.00
  YS02001920YS02001918 CONDUIT    880.69     0  02:05      1.12    0.85    1.00
  YS02001923YS02001920 CONDUIT    876.81     0  02:05      1.12    0.39    1.00
  YS02001926YS02001923 CONDUIT    875.64     0  02:02      1.11    1.25    1.00
  YS02001929YS02001926 CONDUIT    876.00     0  02:02      1.12    0.42    1.00
  YS02006553YS02006556 CONDUIT    794.05     0  02:01      1.01    0.68    1.00
  YS02006556YS02006558 CONDUIT    791.99     0  02:01      1.01    0.63    1.00
  YS02006558YS02006561 CONDUIT   1187.23     0  02:00      4.20    2.62    1.00
  YS02006561YS02001783 CONDUIT   1187.06     0  02:00      2.36    0.61    1.00
  YS02163301YS02001633 CONDUIT   1080.44     0  02:02      1.38    1.02    1.00
  YS02163601YS02164001 CONDUIT   1373.03     0  01:48      1.75    1.22    1.00
  YS02164001YS02001641 CONDUIT   1372.59     0  01:48      1.75    1.87    1.00
  YSB1154YSB6556       CONDUIT    725.69     0  02:05      1.89    1.30    1.00
  YSB1171HS02004479    CONDUIT    380.59     0  01:49      0.76    0.25    1.00
  YSB1174YSB1171       CONDUIT    715.83     0  02:01      1.86    1.10    1.00
  YSB6556YSB1171       CONDUIT    639.84     0  02:06      1.66    0.66    1.00
  CC-R1                PUMP       683.00     0  00:00              1.00
  CC-R2                PUMP       683.00     0  00:00              1.00
  CC-S1                PUMP       200.00     0  00:00              1.00
  CC-S2                PUMP       200.00     0  00:00              1.00
  JK-R1                PUMP      1000.00     0  00:00              1.00
  JK-R2                PUMP      1000.00     0  00:00              1.00
  JK-S                 PUMP       300.00     0  00:00              1.00
  XR-1                 PUMP        95.00     0  00:00              1.00
  XR-2                 PUMP        95.00     0  00:00              1.00
  XR-3                 PUMP        95.00     0  00:00              1.00
  XR-4                 PUMP        95.00     0  00:00              1.00
  
  
  ***************************
  Flow Classification Summary
  ***************************
  
  -------------------------------------------------------------------------------------
                      Adjusted    ---------- Fraction of Time in Flow Class ---------- 
                       /Actual         Up    Down  Sub   Sup   Up    Down  Norm  Inlet 
  Conduit               Length    Dry  Dry   Dry   Crit  Crit  Crit  Crit  Ltd   Ctrl  
  -------------------------------------------------------------------------------------
  1                       1.00   0.00  0.00  0.00  0.00  1.00  0.00  0.00  0.44  0.00
  HS02004478WS02006287    1.00   0.13  0.00  0.00  0.64  0.23  0.00  0.00  0.57  0.00
  HS02004479HS02004480    1.00   0.05  0.00  0.00  0.95  0.00  0.00  0.00  0.10  0.00
  HS02004480HS02004478    1.00   0.13  0.00  0.00  0.59  0.00  0.00  0.29  0.00  0.00
  HS02004770HS02004777    1.00   0.00  0.12  0.00  0.88  0.00  0.00  0.00  0.01  0.00
  HS02004777HS02004785    1.00   0.00  0.00  0.00  1.00  0.00  0.00  0.00  0.10  0.00
  HS02004785HS02004788    1.00   0.00  0.00  0.00  1.00  0.00  0.00  0.00  0.00  0.00
  HS02004788HS02004792    1.00   0.00  0.00  0.00  0.99  0.01  0.00  0.00  0.84  0.00
  HS02004792HS02004799    1.00   0.00  0.00  0.00  0.99  0.01  0.00  0.00  0.79  0.00
  HS02004799HS02004480    1.00   0.00  0.05  0.00  0.87  0.00  0.08  0.00  0.00  0.00
  HS02004802HS02004478    1.00   0.13  0.00  0.00  0.87  0.00  0.00  0.00  0.02  0.00
  HS02004807HS02004802    1.00   0.12  0.00  0.00  0.87  0.00  0.00  0.01  0.00  0.00
  HS02004817HS02004807    1.00   0.00  0.12  0.00  0.88  0.00  0.00  0.00  0.01  0.00
  HS02004817HS02004824    1.00   0.00  0.00  0.00  1.00  0.00  0.00  0.00  0.77  0.00
  HS02004824HS02004830    1.00   0.00  0.00  0.00  1.00  0.00  0.00  0.00  0.01  0.00
  HS02004830HS02004837    1.00   0.00  0.00  0.00  1.00  0.00  0.00  0.00  0.81  0.00
  HS02004837HS02004842    1.00   0.00  0.00  0.00  1.00  0.00  0.00  0.00  0.11  0.00
  HS02004842HS02004848    1.00   0.00  0.12  0.00  0.88  0.00  0.00  0.00  0.54  0.00
  HS02004848HS02004852    1.00   0.12  0.00  0.00  0.88  0.00  0.00  0.00  0.66  0.00
  HS02004852HS02004856    1.00   0.12  0.00  0.00  0.87  0.00  0.00  0.00  0.63  0.00
  HS02004856HS02004862    1.00   0.00  0.13  0.00  0.87  0.00  0.00  0.00  0.69  0.00
  HS02004862HS02004870    1.00   0.00  0.00  0.00  1.00  0.00  0.00  0.00  0.02  0.00
  HS02004870HS02004876    1.00   0.00  0.00  0.00  0.97  0.02  0.00  0.00  0.79  0.00
  HS02004876HS02004881    1.00   0.02  0.00  0.00  0.79  0.20  0.00  0.00  0.00  0.00
  HS02004881HS02006253    1.00   0.00  0.07  0.00  0.52  0.01  0.00  0.39  0.16  0.00
  HS02004901HS02004770    1.00   0.12  0.00  0.00  0.88  0.00  0.00  0.00  0.00  0.00
  WS02001211WS02001212    1.00   0.00  0.03  0.00  0.97  0.00  0.00  0.00  0.00  0.00
  WS02001212WS02001213    1.00   0.03  0.00  0.00  0.56  0.00  0.41  0.00  0.00  0.00
  WS02001213WS02003059    1.00   0.00  0.00  0.00  0.99  0.00  0.00  0.00  0.00  0.00
  WS02003059WS02003060    1.00   0.00  0.00  0.00  1.00  0.00  0.00  0.00  0.03  0.00
  WS02003060WS02003069    1.00   0.00  0.00  0.00  0.97  0.03  0.00  0.00  0.55  0.00
  WS02003066WSF200        1.00   0.07  0.00  0.00  0.00  0.93  0.00  0.00  0.63  0.00
  WS02003067WS02003066    1.00   0.07  0.01  0.00  0.93  0.00  0.00  0.00  0.00  0.00
  WS02003069WS02003072    1.00   0.00  0.00  0.00  1.00  0.00  0.00  0.00  0.60  0.00
  WS02003072WS02003073    1.00   0.00  0.00  0.00  0.00  0.00  0.00  1.00  0.00  0.00
[...]
  WS02006280WS02006229    1.00   0.13  0.00  0.00  0.37  0.03  0.00  0.47  0.01  0.00
  WS02006284WS02006280    1.00   0.13  0.00  0.00  0.33  0.03  0.00  0.51  0.00  0.00
  WS02006287WS02006284    1.00   0.11  0.02  0.00  0.56  0.30  0.00  0.00  0.63  0.00
  WSF200WS02003060        1.00   0.00  0.07  0.00  0.37  0.55  0.00  0.00  0.59  0.00
  YS02001580YS02001583    1.00   0.22  0.34  0.00  0.44  0.00  0.00  0.00  0.64  0.00
  YS02001583YS02001586    1.00   0.30  0.20  0.00  0.49  0.00  0.00  0.00  0.64  0.00
  YS02001586YS02001590    1.00   0.12  0.00  0.00  0.64  0.02  0.00  0.21  0.31  0.00
  YS02001590YS02001593    1.00   0.12  0.00  0.00  0.33  0.00  0.54  0.00  0.00  0.00
  YS02001593YS02001596    1.00   0.13  0.00  0.00  0.36  0.01  0.00  0.50  0.02  0.00
  YS02001596YS02001600    1.00   0.13  0.00  0.00  0.43  0.02  0.00  0.43  0.03  0.00
  YS02001600YS02001601    1.00   0.13  0.00  0.00  0.87  0.00  0.00  0.00  0.58  0.00
  YS02001601YS02001602    1.00   0.12  0.00  0.00  0.87  0.00  0.00  0.00  0.00  0.00
  YS02001602YS02001605    1.00   0.13  0.00  0.00  0.87  0.00  0.00  0.00  0.00  0.00
  YS02001605YS02001607    1.00   0.13  0.00  0.00  0.87  0.00  0.00  0.00  0.00  0.00
  YS02001607YS02001610    1.00   0.13  0.00  0.00  0.87  0.00  0.00  0.00  0.01  0.00
  YS02001610YS02001613    1.00   0.13  0.00  0.00  0.87  0.00  0.00  0.00  0.00  0.00
  YS02001613YS02001616    1.00   0.12  0.00  0.00  0.88  0.00  0.00  0.00  0.00  0.00
  YS02001616YS02001619    1.00   0.12  0.00  0.00  0.88  0.00  0.00  0.00  0.00  0.00
  YS02001619YS02001622    1.00   0.12  0.00  0.00  0.88  0.00  0.00  0.00  0.32  0.00
  YS02001622YS02001625    1.00   0.12  0.00  0.00  0.88  0.00  0.00  0.00  0.02  0.00
  YS02001625YS02001629    1.00   0.13  0.02  0.00  0.38  0.00  0.47  0.00  0.00  0.00
  YS02001629YS02163301    1.00   0.13  0.00  0.00  0.87  0.00  0.00  0.00  0.00  0.00
  YS02001633YS02163601    1.00   0.00  0.01  0.00  0.99  0.00  0.00  0.00  0.14  0.00
  YS02001641YS02001644    1.00   0.00  0.00  0.00  1.00  0.00  0.00  0.00  0.00  0.00
  YS02001644YS02001647    1.00   0.00  0.14  0.00  0.86  0.00  0.00  0.00  0.00  0.00
  YS02001647YS02001649    1.00   0.00  0.13  0.00  0.62  0.24  0.00  0.00  0.56  0.00
  YS02001649YS02001757    1.00   0.00  0.00  0.00  0.75  0.25  0.00  0.00  0.48  0.00
  YS02001652YS02001649    1.00   0.00  0.00  0.00  0.98  0.02  0.00  0.00  0.71  0.00
  YS02001655YS02001652    1.00   0.00  0.00  0.00  0.41  0.01  0.00  0.58  0.06  0.00
  YS02001658YS02001655    1.00   0.00  0.13  0.00  0.64  0.24  0.00  0.00  0.65  0.00
  YS02001661YS02001658    1.00   0.13  0.00  0.00  0.46  0.41  0.00  0.00  0.69  0.00
  YS02001664YS02001661    1.00   0.12  0.00  0.00  0.60  0.28  0.00  0.00  0.83  0.00
  YS02001745YS02001748    1.00   0.00  0.00  0.00  0.22  0.02  0.00  0.76  0.06  0.00
  YS02001748YS02001751    1.00   0.00  0.00  0.00  0.80  0.20  0.00  0.00  0.76  0.00
  YS02001751YS02001754    1.00   0.00  0.00  0.00  0.36  0.01  0.00  0.63  0.03  0.00
  YS02001754YS02001757    1.00   0.00  0.00  0.00  1.00  0.00  0.00  0.00  0.79  0.00
  YS02001757CaochengTiaoxuchi    1.00   0.00  0.00  0.00  0.59  0.41  0.00  0.00  0.52  0.00
  YS02001759YS02001757    1.00   0.00  0.00  0.00  1.00  0.00  0.00  0.00  0.63  0.00
  YS02001762YS02001759    1.00   0.00  0.00  0.00  1.00  0.00  0.00  0.00  0.04  0.00
  YS02001765YS02001762    1.00   0.00  0.00  0.00  1.00  0.00  0.00  0.00  0.71  0.00
  YS02001767YS02001765    1.00   0.00  0.00  0.00  1.00  0.00  0.00  0.00  0.00  0.00
  YS02001770YS02001767    1.00   0.00  0.00  0.00  1.00  0.00  0.00  0.00  0.00  0.00
  YS02001774YS02001770    1.00   0.00  0.12  0.00  0.74  0.00  0.13  0.00  0.01  0.00
  YS02001779YS02001774    1.00   0.00  0.00  0.00  1.00  0.00  0.00  0.00  0.75  0.00
  YS02001783YS02001784    1.00   0.00  0.14  0.00  0.86  0.00  0.00  0.00  0.56  0.00
  YS02001784YS02001785    1.00   0.00  0.00  0.00  1.00  0.00  0.00  0.00  0.15  0.00
  YS02001786YS02001788    1.00   0.00  0.00  0.00  0.67  0.32  0.00  0.00  0.00  0.00
  YS02001788YS02001790    1.00   0.00  0.00  0.00  0.23  0.77  0.00  0.00  0.77  0.00
  YS02001790YS02001791    1.00   0.00  0.00  0.00  0.01  0.99  0.00  0.00  0.14  0.00
  YS02001791YS02001793    1.00   0.00  0.00  0.00  0.00  1.00  0.00  0.00  0.02  0.00
  YS02001793JiankangQianchi    1.00   0.00  0.00  0.00  0.12  0.88  0.00  0.00  0.59  0.00
  YS02001882YS02001884    1.00   0.13  0.00  0.00  0.87  0.00  0.00  0.00  0.00  0.00
  YS02001884YS02001887    1.00   0.08  0.03  0.00  0.88  0.00  0.00  0.00  0.00  0.00
  YS02001887YS02001890    1.00   0.00  0.00  0.00  0.96  0.00  0.04  0.00  0.00  0.00
  YS02001890YS02001895    1.00   0.00  0.13  0.00  0.87  0.00  0.00  0.00  0.00  0.00
  YS02001895YS02001898    1.00   0.13  0.00  0.00  0.86  0.00  0.01  0.00  0.00  0.00
  YS02001898YS02001901    1.00   0.14  0.00  0.00  0.86  0.00  0.00  0.00  0.00  0.00
  YS02001901YS02001904    1.00   0.14  0.00  0.00  0.86  0.00  0.00  0.00  0.00  0.00
  YS02001904YS02001907    1.00   0.00  0.13  0.00  0.86  0.00  0.00  0.00  0.00  0.00
  YS02001907YS02006553    1.00   0.00  0.02  0.00  0.98  0.00  0.00  0.00  0.00  0.00
  YS02001910YS02001907    1.00   0.00  0.00  0.00  0.96  0.01  0.00  0.03  0.11  0.00
  YS02001915YS02001910    1.00   0.00  0.00  0.00  0.97  0.03  0.00  0.00  0.12  0.00
  YS02001918YS02001915    1.00   0.00  0.00  0.00  0.97  0.02  0.00  0.00  0.69  0.00
  YS02001920YS02001918    1.00   0.00  0.00  0.00  1.00  0.00  0.00  0.00  0.00  0.00
  YS02001923YS02001920    1.00   0.00  0.00  0.00  1.00  0.00  0.00  0.00  0.89  0.00
  YS02001926YS02001923    1.00   0.00  0.10  0.00  0.18  0.00  0.73  0.00  0.00  0.00
  YS02001929YS02001926    1.00   0.00  0.12  0.00  0.88  0.00  0.00  0.00  0.79  0.00
  YS02006553YS02006556    1.00   0.01  0.00  0.00  0.99  0.00  0.00  0.00  0.03  0.00
  YS02006556YS02006558    1.00   0.00  0.00  0.00  1.00  0.00  0.00  0.00  0.00  0.00
  YS02006558YS02006561    1.00   0.14  0.00  0.00  0.17  0.69  0.00  0.00  0.14  0.00
  YS02006561YS02001783    1.00   0.14  0.00  0.00  0.25  0.61  0.00  0.00  0.65  0.00
  YS02163301YS02001633    1.00   0.00  0.13  0.00  0.87  0.00  0.00  0.00  0.00  0.00
  YS02163601YS02164001    1.00   0.00  0.10  0.00  0.90  0.00  0.00  0.00  0.00  0.00
  YS02164001YS02001641    1.00   0.01  0.10  0.00  0.90  0.00  0.00  0.00  0.05  0.00
  YSB1154YSB6556          1.00   0.12  0.00  0.00  0.88  0.00  0.00  0.00  0.01  0.00
  YSB1171HS02004479       1.00   0.06  0.00  0.00  0.92  0.00  0.00  0.02  0.09  0.00
  YSB1174YSB1171          1.00   0.07  0.03  0.00  0.89  0.00  0.00  0.00  0.00  0.00
  YSB6556YSB1171          1.00   0.06  0.06  0.00  0.88  0.00  0.00  0.00  0.00  0.00
  
  
  *************************
  Conduit Surcharge Summary
  *************************
  
  ----------------------------------------------------------------------------
                                                           Hours        Hours 
                         --------- Hours Full --------   Above Full   Capacity
  Conduit                Both Ends  Upstream  Dnstream   Normal Flow   Limited
  ----------------------------------------------------------------------------
  HS02004478WS02006287        0.91      0.91      1.14      0.01         0.01
  HS02004479HS02004480        1.14      1.14      1.17      0.01         0.01
  HS02004480HS02004478        1.04      1.13      1.04      2.00         1.04
  HS02004770HS02004777        1.00      1.00      1.01      0.14         0.09
  HS02004777HS02004785        0.95      0.95      1.01      0.01         0.01
  HS02004785HS02004788        0.93      0.95      0.93      1.71         0.73
  HS02004788HS02004792        0.93      0.93      1.10      0.01         0.01
  HS02004792HS02004799        1.10      1.10      1.27      0.01         0.01
  HS02004799HS02004480        1.13      1.13      1.27      1.45         0.01
  HS02004802HS02004478        1.06      1.06      1.15      0.37         0.01
  HS02004807HS02004802        1.11      1.11      1.15      0.56         0.57
  HS02004817HS02004807        1.11      1.11      1.71      0.01         0.01
  HS02004817HS02004824        0.93      0.93      1.71      0.01         0.01
  HS02004824HS02004830        0.90      0.90      0.93      0.01         0.01
  HS02004830HS02004837        0.84      0.84      0.90      0.01         0.01
  HS02004837HS02004842        0.84      0.84      1.02      0.01         0.01
  HS02004842HS02004848        0.80      0.80      1.02      0.01         0.01
  HS02004848HS02004852        0.80      0.80      0.83      0.02         0.01
  HS02004852HS02004856        0.83      0.83      0.86      0.02         0.01
  HS02004856HS02004862        0.82      0.82      0.87      0.01         0.01
  HS02004862HS02004870        0.87      0.87      0.89      0.33         0.34
  HS02004870HS02004876        0.89      0.89      0.98      0.01         0.01
  HS02004876HS02004881        0.95      0.98      0.95      1.85         0.95
  HS02004881HS02006253        0.95      0.95      2.34      0.01         0.01
  HS02004901HS02004770        1.00      1.00      1.01      0.31         0.01
  WS02003072WS02003073        0.01      0.01      0.01      2.74         0.01
  WS02004401WS02004402        1.88      1.88      1.91      1.73         1.71
  WS02004402WS02004403        1.91      1.91      1.92      1.88         1.86
  WS02004403WS02004404        1.92      1.92      2.09      0.13         0.14
  WS02004404WS02004405        2.05      2.09      2.05      3.39         2.05
  WS02004405WS02004406        2.02      2.05      2.02      2.42         2.02
  WS02004406WS02004407        0.19      0.19      2.02      0.01         0.01
  WS02004407WS02004409        0.19      0.19      1.54      0.01         0.01
  WS02004409WS02004410        1.52      1.54      1.52      1.79         1.52
  WS02004410WS02004411        1.45      1.52      1.45      1.84         1.45
  WS02004411WS02004412        1.30      1.45      1.30      1.87         1.30
  WS02004412WS02004413        1.30      1.30      1.68      0.01         0.01
  WS02004413WS02003067        0.01      0.01      1.68      0.01         0.01
  WS02006109WS02006110        2.38      2.38      2.71      2.39         0.01
  WS02006110WS02006113        1.66      1.66      2.66      0.35         0.01
  WS02006111WS02006112        1.64      1.64      2.78      0.01         0.01
  WS02006112WS02006115        1.79      1.79      2.43      0.01         0.01
  WS02006113WS02006111        1.65      1.66      1.65      1.73         1.60
  WS02006115WS02006116        1.80      1.80      1.81      1.78         1.76
  WS02006116WS02004401        1.87      1.87      1.88      1.84         1.83
  WS02006228WS02006109        2.60      2.71      2.60      3.02         2.60
  WS02006229WS02006228        2.58      2.64      2.58      2.89         2.58
  WS02006230WS02006229        2.78      2.82      2.79      3.39         1.11
  WS02006231WS02006230        2.14      2.14      2.40      3.17         1.60
  WS02006232WS02006231        2.38      2.38      2.62      0.01         0.24
  WS02006234WS02006232        2.41      2.41      2.62      0.01         0.03
  WS02006235WS02006234        2.39      2.40      2.49      2.91         1.56
  WS02006238WS02006235        2.51      2.51      2.61      0.01         0.26
  WS02006239WS02006238        2.54      2.59      2.55      2.25         0.76
  WS02006240WS02006239        2.48      2.51      2.49      2.23         0.70
  WS02006242WS02006240        2.49      2.49      2.65      2.41         1.33
  WS02006243WS02006242        2.51      2.51      2.61      0.01         0.01
  WS02006245WS02006243        2.49      2.51      2.50      0.87         0.67
  WS02006247WS02006245        2.49      2.54      2.49      2.72         0.89
  WS02006248WS02006247        2.49      2.49      2.52      0.01         0.03
  WS02006249WS02006248        2.48      2.48      2.51      1.07         0.01
  WS02006251WS02006249        2.50      2.52      2.51      2.64         2.43
  WS02006252WS02006251        2.71      2.71      2.72      2.22         0.28
  WS02006253WS02006251        2.51      2.51      2.54      1.30         0.02
  WS02006256WS02006235        3.05      3.10      6.04      0.10         0.15
  WS02006280WS02006229        1.31      1.31      1.52      0.01         0.01
  WS02006284WS02006280        1.17      1.17      1.28      0.01         0.01
  WS02006287WS02006284        1.02      1.02      1.19      0.61         0.62
  YS02001580YS02001583        1.02      1.02      1.06      0.01         0.01
  YS02001583YS02001586        1.03      1.03      1.15      0.01         0.01
  YS02001586YS02001590        1.15      1.15      1.24      0.01         0.01
  YS02001590YS02001593        1.24      1.24      1.27      1.31         0.01
  YS02001593YS02001596        1.26      1.26      1.39      0.01         0.01
  YS02001596YS02001600        1.45      1.45      1.54      0.01         0.01
  YS02001600YS02001601        1.59      1.59      1.80      0.01         0.01
  YS02001601YS02001602        1.72      1.72      1.83      1.57         0.01
  YS02001602YS02001605        1.68      1.68      1.72      2.44         0.01
  YS02001605YS02001607        1.64      1.68      1.64      1.78         1.64
  YS02001607YS02001610        1.18      1.18      1.22      0.01         0.01
  YS02001610YS02001613        1.17      1.17      1.22      0.01         0.01
  YS02001613YS02001616        1.12      1.12      1.17      0.01         0.01
  YS02001616YS02001619        1.10      1.10      1.12      0.24         0.19
  YS02001619YS02001622        1.09      1.10      1.09      1.29         1.06
  YS02001622YS02001625        1.09      1.09      1.33      0.01         0.01
  YS02001625YS02001629        1.00      1.00      1.33      0.01         0.01
  YS02001629YS02163301        1.31      1.31      1.32      0.57         0.41
  YS02001633YS02163601        1.34      1.34      1.38      0.66         0.65
  YS02001641YS02001644        1.18      1.24      1.18      1.85         1.17
  YS02001644YS02001647        0.85      0.85      1.18      0.04         0.01
  YS02001647YS02001649        0.85      0.85      0.99      0.01         0.01
  YS02001649YS02001757        0.98      0.99      1.04      0.51         0.42
  YS02001652YS02001649        0.77      0.77      0.99      0.01         0.01
  YS02001655YS02001652        0.53      0.53      0.73      0.01         0.01
  YS02001658YS02001655        0.39      0.39      0.53      0.01         0.01
  YS02001661YS02001658        0.21      0.21      0.39      0.01         0.01
  YS02001664YS02001661        0.06      0.06      0.25      0.01         0.01
  YS02001745YS02001748        0.02      0.02      0.27      0.01         0.01
  YS02001748YS02001751        0.35      0.35      0.42      0.01         0.01
  YS02001751YS02001754        0.42      0.42      0.55      0.01         0.01
  YS02001754YS02001757        0.62      0.62      1.04      0.01         0.01
  YS02001757CaochengTiaoxuchi        0.63      1.04      1.10      0.74         0.26
  YS02001759YS02001757        0.91      0.91      1.04      0.21         0.23
  YS02001762YS02001759        0.87      0.87      0.91      0.01         0.03
  YS02001765YS02001762        0.81      0.81      0.87      0.01         0.01
  YS02001767YS02001765        0.77      0.77      0.81      0.01         0.05
  YS02001770YS02001767        0.77      0.77      0.77      0.80         0.62
  YS02001774YS02001770        0.74      0.74      0.84      0.01         0.01
  YS02001779YS02001774        0.57      0.57      0.84      0.01         0.01
  YS02001783YS02001784        0.78      0.82      0.78      1.02         0.78
  YS02001784YS02001785        0.65      0.78      0.65      1.38         0.65
  YS02001786YS02001788        0.01      0.65      0.01      1.17         0.01
  YS02001790YS02001791        0.01      0.01      0.01      0.77         0.01
  YS02001882YS02001884        0.74      0.74      0.75      0.01         0.01
  YS02001884YS02001887        0.79      0.79      0.80      0.01         0.01
  YS02001887YS02001890        0.82      0.82      0.83      0.29         0.01
  YS02001890YS02001895        0.73      0.73      0.86      0.01         0.01
  YS02001895YS02001898        0.72      0.72      0.73      0.01         0.01
  YS02001898YS02001901        0.73      0.73      0.78      0.01         0.01
  YS02001901YS02001904        0.77      0.77      0.78      0.01         0.01
  YS02001904YS02001907        0.77      0.77      1.15      0.01         0.01
  YS02001907YS02006553        1.39      1.39      1.48      0.01         0.01
  YS02001910YS02001907        0.85      0.85      1.11      0.17         0.17
  YS02001915YS02001910        0.74      0.74      0.85      0.01         0.02
  YS02001918YS02001915        0.63      0.63      0.74      0.01         0.01
  YS02001920YS02001918        0.63      0.63      0.65      0.01         0.01
  YS02001923YS02001920        0.58      0.58      0.65      0.01         0.01
  YS02001926YS02001923        0.28      0.28      0.32      0.14         0.01
  YS02001929YS02001926        0.19      0.19      0.32      0.01         0.01
  YS02006553YS02006556        0.98      0.98      1.14      0.01         0.01
  YS02006556YS02006558        1.06      1.06      1.18      0.01         0.01
  YS02006558YS02006561        0.67      0.96      0.67      1.31         0.67
  YS02006561YS02001783        0.60      0.60      0.82      0.01         0.01
  YS02163301YS02001633        1.32      1.32      1.37      0.02         0.01
  YS02163601YS02164001        1.25      1.25      1.38      0.27         0.01
  YS02164001YS02001641        1.24      1.25      1.24      1.15         0.95
  YSB1154YSB6556              1.22      1.22      1.48      0.16         0.01
  YSB1171HS02004479           1.08      1.08      1.48      0.01         0.01
  YSB1174YSB1171              1.33      1.33      1.67      0.04         0.04
  YSB6556YSB1171              1.22      1.22      1.77      0.01         0.01
  
  
  ***************
  Pumping Summary
  ***************
  
  ---------------------------------------------------------------------------------------------------------
                                                  Min       Avg       Max     Total     Power    % Time Off
                        Percent   Number of      Flow      Flow      Flow    Volume     Usage    Pump Curve
  Pump                 Utilized   Start-Ups       LPS       LPS       LPS  10^6 ltr     Kw-hr    Low   High
  ---------------------------------------------------------------------------------------------------------
  CC-R1                   33.34           3      0.00    683.00    683.00     6.559    112.17    0.0   58.7
  CC-R2                   33.34           3      0.00    683.00    683.00     6.559    112.17    0.0   58.7
  CC-S1                   33.34           3      0.00    200.00    200.00     1.921     15.66    0.0   25.1
  CC-S2                   33.34           3      0.00    200.00    200.00     1.921     15.66    0.0   25.1
  JK-R1                    9.34         448      0.00    994.77   1000.00     2.659      6.46    0.0    0.0
  JK-R2                    9.34         448      0.00    994.77   1000.00     2.659      6.46    0.0    0.0
  JK-S                     9.34         448      0.00    299.82    300.00     0.805     18.39    0.0    0.0
  XR-1                    97.91           2      0.00     95.00     95.00     2.679      9.63    0.0    0.0
  XR-2                    93.94           2      0.00     95.00     95.00     2.570      8.78    0.0    0.0
  XR-3                     0.00           1      0.00     95.00     95.00     0.000      0.00    0.0    0.0
  XR-4                     0.00           1      0.00     95.00     95.00     0.000      0.00    0.0    0.0
  

  Analysis begun on:  Tue Jul 11 11:22:17 2023
  Analysis ended on:  Tue Jul 11 11:22:23 2023
  Total elapsed time: 00:00:06