
  EPA STORM WATER MANAGEMENT MODEL - VERSION 5.1 (Build 5.3.0.dev0)
  --------------------------------------------------------------

  WARNING 04: minimum elevation drop used for Conduit WS02004404WS02004405
  WARNING 03: negative offset ignored for Link YS02001904YS02001907
  
  *********************************************************
  NOTE: The summary statistics displayed in this report are
  based on results found at every computational time step,  
  not just on results from each reporting time step.
  *********************************************************
  
  ****************
  Analysis Options
  ****************
  Flow Units ............... LPS
  Process Models:
    Rainfall/Runoff ........ YES
    RDII ................... NO
    Snowmelt ............... NO
    Groundwater ............ NO
    Flow Routing ........... YES
    Ponding Allowed ........ NO
    Water Quality .......... NO
  Infiltration Method ...... HORTON
  Flow Routing Method ...... DYNWAVE
  Surcharge Method ......... EXTRAN
  Starting Date ............ 08/28/2015 08:00:00
  Ending Date .............. 08/28/2015 16:00:00
  Antecedent Dry Days ...... 8.0
  Report Time Step ......... 00:01:00
  Wet Time Step ............ 00:01:00
  Dry Time Step ............ 00:01:00
  Routing Time Step ........ 30.00 sec
  Variable Time Step ....... YES
  Maximum Trials ........... 8
  Number of Threads ........ 4
  Head Tolerance ........... 0.001500 m
  
  
  **************************        Volume         Depth
  Runoff Quantity Continuity     hectare-m            mm
  **************************     ---------       -------
  Initial LID Storage ......         0.072         1.184
  Total Precipitation ......         7.382       121.865
  Evaporation Loss .........         0.000         0.000
  Infiltration Loss ........         0.215         3.548
  Surface Runoff ...........         5.896        97.326
  Final Storage ............         1.345        22.200
  Continuity Error (%) .....        -0.020
  
  
  **************************        Volume        Volume
  Flow Routing Continuity        hectare-m      10^6 ltr
  **************************     ---------     ---------
  Dry Weather Inflow .......         0.630         6.296
  Wet Weather Inflow .......         5.895        58.955
  Groundwater Inflow .......         0.000         0.000
  RDII Inflow ..............         0.000         0.000
  External Inflow ..........         0.105         1.045
  External Outflow .........         3.297        32.975
  Flooding Loss ............         3.512        35.121
  Evaporation Loss .........         0.000         0.000
  Exfiltration Loss ........         0.000         0.000
  Initial Stored Volume ....         0.303         3.031
  Final Stored Volume ......         0.178         1.777
  Continuity Error (%) .....        -0.787
  
  
  *************************
  Highest Continuity Errors
  *************************
  Node JK-storage (-11.10%)
  Node WS02006256 (5.63%)
  Node YS02001884 (5.04%)
  Node YS02001583 (-4.58%)
  Node HS02004842 (1.11%)
  
  
  ***************************
  Time-Step Critical Elements
  ***************************
  Link WS02006280WS02006229 (42.63%)
  Link YS02001793JiankangQianchi (21.43%)
  Link WS02006238WS02006235 (10.50%)
  Link WS02004404WS02004405 (4.49%)
  Link WS02006252WS02006251 (3.92%)
  
  
  ********************************
  Highest Flow Instability Indexes
  ********************************
  Link WS02004404WS02004405 (42)
  Link WS02006229WS02006228 (38)
  Link WS02006252WS02006251 (37)
  Link WS02004403WS02004404 (36)
  Link WS02006113WS02006111 (29)
  
  
  *************************
  Routing Time Step Summary
  *************************
  Minimum Time Step           :     0.01 sec
  Average Time Step           :     2.30 sec
  Maximum Time Step           :     6.46 sec
  Percent in Steady State     :     0.00
  Average Iterations per Step :     4.83
  Percent Not Converging      :    35.34
  
  
  ***************************
  Subcatchment Runoff Summary
  ***************************
  
  ------------------------------------------------------------------------------------------------------------------------------
                            Total      Total      Total      Total     Imperv       Perv      Total       Total     Peak  Runoff
                           Precip      Runon       Evap      Infil     Runoff     Runoff     Runoff      Runoff   Runoff   Coeff
  Subcatchment                 mm         mm         mm         mm         mm         mm         mm    10^6 ltr      LPS
  ------------------------------------------------------------------------------------------------------------------------------
  sub0                     121.87       0.00       0.00       1.04     112.10       7.49     119.60        0.10    72.16   0.981
  sub1                     121.87       0.00       0.00       1.59      96.11      10.43     106.71        0.71   463.45   0.876
  sub10                    121.87       0.00       0.00       1.01      90.06       6.91      97.28        1.07   717.70   0.798
  sub11                    121.87       0.00       0.00       0.92      83.69       6.44      90.53        1.05   739.43   0.743
  sub12                    121.87       0.00       0.00       1.62      85.07      11.24      96.62        0.84   622.14   0.793
  sub14                    121.87       0.00       0.00       1.00      79.26       6.93      86.64        0.82   572.14   0.711
  sub15                    121.87       0.00       0.00       4.57      71.26      26.32      97.83        1.68  1065.41   0.803
  sub16                    121.87       0.00       0.00       4.85      69.50      29.76      99.49        1.04   707.70   0.816
  sub17                    121.87       0.00       0.00       5.20      76.70      31.31     108.12        0.93   617.06   0.887
  sub2                     121.87       0.00       0.00       7.25      70.27      34.51     104.90        0.98   527.09   0.861
  sub22                    121.87       0.00       0.00       8.11      66.52      42.64     109.21        6.90  4062.77   0.896
  sub23                    121.87       0.00       0.00       6.09      68.49      34.59     103.25        4.92  3103.14   0.847
  sub3                     121.87       0.00       0.00       7.81      69.62      33.58     103.33        2.33  1152.41   0.848
  sub4                     121.87       0.00       0.00       1.74      94.77      10.13     105.08        2.19  1200.28   0.862
  sub5                     121.87       0.00       0.00       0.90      92.97       6.18      99.43        1.13   742.18   0.816
  sub60                    121.87       0.00       0.00       1.44      81.85       9.85      92.07        1.21   855.30   0.755
  sub61                    121.87       0.00       0.00       2.22      81.78      14.72      96.80        1.78  1252.48   0.794
  sub62                    121.87       0.00       0.00       0.98      87.19       6.69      94.23        2.58  1716.23   0.773
  sub63                    121.87       0.00       0.00       4.07      70.04      24.87      95.20        2.16  1447.93   0.781
  sub64                    121.87       0.00       0.00       1.95      79.77      12.29      92.42        2.22  1431.25   0.758
  sub65                    121.87       0.00       0.00       1.79      86.11      11.23      97.63        2.69  1686.49   0.801
  sub66                    121.87       0.00       0.00       4.77      67.78      23.26      91.37        4.26  2295.60   0.750
  sub67                    121.87       0.00       0.00       0.97      89.37       6.89      96.58        1.80  1314.01   0.793
  sub68                    121.87       0.00       0.00       1.70      78.94      11.30      90.62        2.49  1711.74   0.744
  sub69                    121.87       0.00       0.00       1.58      82.01      12.91      95.25        3.53  2178.53   0.782
  sub7                     121.87       0.00       0.00       1.06      84.95       7.43      92.75        0.31   222.76   0.761
  sub70                    121.87       0.00       0.00       5.34      65.74      28.58      94.62        2.73  1334.62   0.776
  sub71                    121.87       0.00       0.00       0.91      79.22       6.06      85.75        2.24  1438.37   0.704
  sub72                    121.87       0.00       0.00       0.86      85.60       5.66      91.65        1.26   756.47   0.752
  sub8                     121.87       0.00       0.00       1.04      82.56       7.22      90.18        0.58   401.84   0.740
  sub9                     121.87       0.00       0.00       1.01      80.03       6.99      87.47        0.42   292.83   0.718
  

  ***********************
  LID Performance Summary
  ***********************

  --------------------------------------------------------------------------------------------------------------------
                                         Total      Evap     Infil   Surface    Drain    Initial     Final  Continuity
                                        Inflow      Loss      Loss   Outflow   Outflow   Storage   Storage       Error
  Subcatchment      LID Control             mm        mm        mm        mm        mm        mm        mm           %
  --------------------------------------------------------------------------------------------------------------------
  sub1              GreenRoof           121.87      0.00      0.00      1.63      0.00      7.05    127.28       -0.00
  sub10             GreenRoof           121.87      0.00      0.00      1.63      0.00      7.05    127.28       -0.00
  sub11             GreenRoof           121.87      0.00      0.00      1.63      0.00      7.05    127.28       -0.00
  sub12             GreenRoof           121.87      0.00      0.00      1.63      0.00      7.05    127.28       -0.00
  sub14             GreenRoof           121.87      0.00      0.00      1.63      0.00      7.05    127.28       -0.00
  sub15             GreenRoof           121.87      0.00      0.00      1.63      0.00      7.05    127.28       -0.00
  sub16             GreenRoof           121.87      0.00      0.00      1.63      0.00      7.05    127.28       -0.00
  sub17             GreenRoof           121.87      0.00      0.00      1.63      0.00      7.05    127.28       -0.00
  sub2              GreenRoof           121.87      0.00      0.00      1.63      0.00      7.05    127.28       -0.00
  sub22             GreenRoof           121.87      0.00      0.00      1.63      0.00      7.05    127.28       -0.00
  sub23             GreenRoof           121.87      0.00      0.00      1.63      0.00      7.05    127.28       -0.00
  sub3              GreenRoof           121.87      0.00      0.00      1.63      0.00      7.05    127.28       -0.00
  sub4              GreenRoof           121.87      0.00      0.00      1.63      0.00      7.05    127.28       -0.00
  sub5              GreenRoof           121.87      0.00      0.00      1.63      0.00      7.05    127.28       -0.00
  sub60             GreenRoof           121.87      0.00      0.00      1.63      0.00      7.05    127.28       -0.00
  sub61             GreenRoof           121.87      0.00      0.00      1.63      0.00      7.05    127.28       -0.00
  sub62             GreenRoof           121.87      0.00      0.00      1.63      0.00      7.05    127.28       -0.00
  sub63             GreenRoof           121.87      0.00      0.00      1.63      0.00      7.05    127.28       -0.00
  sub64             GreenRoof           121.87      0.00      0.00      1.63      0.00      7.05    127.28       -0.00
  sub65             GreenRoof           121.87      0.00      0.00      1.63      0.00      7.05    127.28       -0.00
  sub66             GreenRoof           121.87      0.00      0.00      1.63      0.00      7.05    127.28       -0.00
  sub67             GreenRoof           121.87      0.00      0.00      1.63      0.00      7.05    127.28       -0.00
  sub68             GreenRoof           121.87      0.00      0.00      1.63      0.00      7.05    127.28       -0.00
  sub69             GreenRoof           121.87      0.00      0.00      1.63      0.00      7.05    127.28       -0.00
  sub7              GreenRoof           121.87      0.00      0.00      1.63      0.00      7.05    127.28       -0.00
  sub70             GreenRoof           121.87      0.00      0.00      1.63      0.00      7.05    127.28       -0.00
  sub71             GreenRoof           121.87      0.00      0.00      1.63      0.00      7.05    127.28       -0.00
  sub72             GreenRoof           121.87      0.00      0.00      1.63      0.00      7.05    127.28       -0.00
  sub8              GreenRoof           121.87      0.00      0.00      1.63      0.00      7.05    127.28       -0.00
  sub9              GreenRoof           121.87      0.00      0.00      1.63      0.00      7.05    127.28       -0.00
  
  ******************
  Node Depth Summary
  ******************
  
  ---------------------------------------------------------------------------------
                                 Average  Maximum  Maximum  Time of Max    Reported
                                   Depth    Depth      HGL   Occurrence   Max Depth
  Node                 Type       Meters   Meters   Meters  days hr:min      Meters
  ---------------------------------------------------------------------------------
  HS02004478           JUNCTION     0.41     1.59    10.82     0  01:58        1.58
  HS02004479           JUNCTION     0.49     1.70    10.90     0  01:49        1.67
  HS02004480           JUNCTION     0.46     1.67    10.91     0  01:49        1.63
  HS02004770           JUNCTION     0.43     1.42    11.25     0  01:46        1.42
  HS02004777           JUNCTION     0.46     1.48    11.28     0  01:46        1.47
  HS02004785           JUNCTION     0.35     1.49    11.39     0  01:46        1.40
  HS02004788           JUNCTION     0.32     1.42    11.32     0  01:46        1.42
  HS02004792           JUNCTION     0.42     1.60    11.12     0  01:46        1.60
  HS02004799           JUNCTION     0.53     1.76    10.97     0  01:49        1.76
  HS02004802           JUNCTION     0.51     1.80    10.93     0  02:05        1.80
  HS02004807           JUNCTION     0.50     1.92    11.09     0  01:49        1.92
  HS02004817           JUNCTION     0.80     2.43    11.28     0  01:49        2.42
  HS02004824           JUNCTION     0.38     2.01    11.41     0  01:49        2.01
  HS02004830           JUNCTION     0.37     2.03    11.50     0  01:49        1.99
  HS02004837           JUNCTION     0.33     2.04    11.62     0  01:49        1.93
  HS02004842           JUNCTION     0.62     2.22    11.49     0  01:49        2.22
  HS02004848           JUNCTION     0.31     2.07    11.67     0  01:49        1.97
  HS02004852           JUNCTION     0.32     2.12    11.63     0  01:49        2.01
  HS02004856           JUNCTION     0.37     2.07    11.50     0  01:49        2.05
  HS02004862           JUNCTION     0.34     2.00    11.38     0  01:48        2.00
  HS02004870           JUNCTION     0.33     2.09    11.37     0  02:01        2.09
  HS02004876           JUNCTION     0.39     2.24    11.27     0  02:01        2.24
  HS02004881           JUNCTION     0.31     1.99    11.02     0  02:01        1.99
  HS02004901           JUNCTION     0.44     1.42    11.24     0  01:46        1.42
  WS02001211           JUNCTION     0.66     0.84     5.68     0  02:04        0.84
  WS02001212           JUNCTION     0.40     0.60     5.67     0  02:04        0.60
  WS02001213           JUNCTION     0.63     0.90     5.66     0  02:04        0.90
  WS02003059           JUNCTION     0.69     0.97     5.66     0  02:04        0.97
  WS02003060           JUNCTION     0.42     0.72     5.65     0  02:04        0.72
  WS02003066           JUNCTION     0.26     0.47     6.03     0  02:00        0.47
  WS02003067           JUNCTION     0.59     0.91     6.23     0  01:59        0.91
  WS02003069           JUNCTION     0.47     0.81     5.40     0  02:04        0.81
  WS02003072           JUNCTION     0.53     0.84     5.21     0  02:05        0.84
  WS02003073           JUNCTION     0.32     0.53     4.60     0  02:05        0.53
  WS02004138           JUNCTION     0.13     0.14     7.39     0  00:32        0.14
  WS02004139           JUNCTION     0.59     0.77     5.68     0  02:05        0.77
  WS02004401           JUNCTION     0.94     2.12     8.12     0  02:02        2.11
  WS02004402           JUNCTION     0.94     2.05     8.01     0  02:03        2.05
  WS02004403           JUNCTION     0.93     1.95     7.88     0  01:59        1.95
  WS02004404           JUNCTION     0.98     1.95     7.80     0  02:03        1.95
  WS02004405           JUNCTION     0.96     1.89     7.74     0  02:01        1.88
  WS02004406           JUNCTION     0.94     1.76     7.59     0  02:01        1.76
  WS02004407           JUNCTION     0.36     1.08     7.40     0  01:59        1.08
  WS02004409           JUNCTION     0.66     1.50     7.27     0  02:01        1.49
  WS02004410           JUNCTION     0.65     1.39     7.11     0  01:59        1.38
  WS02004411           JUNCTION     0.64     1.28     6.96     0  02:00        1.28
  WS02004412           JUNCTION     0.63     1.15     6.79     0  02:01        1.15
  WS02004413           JUNCTION     0.74     1.17     6.64     0  02:00        1.17
  WS02006109           JUNCTION     1.26     2.64     9.26     0  01:46        2.64
  WS02006110           JUNCTION     1.16     2.76     9.34     0  01:32        2.76
  WS02006111           JUNCTION     0.64     2.68     9.39     0  01:32        2.68
  WS02006112           JUNCTION     1.20     2.68     8.56     0  01:59        2.68
  WS02006113           JUNCTION     0.72     2.73     9.62     0  01:32        2.73
  WS02006115           JUNCTION     0.89     2.25     8.39     0  02:02        2.25
  WS02006116           JUNCTION     0.95     2.23     8.27     0  02:01        2.22
  WS02006228           JUNCTION     1.37     3.03     9.68     0  02:01        3.03
  WS02006229           JUNCTION     1.40     3.23     9.92     0  01:55        3.22
  WS02006230           JUNCTION     1.27     2.65     9.39     0  01:42        2.65
  WS02006231           JUNCTION     0.96     2.20     9.32     0  02:22        2.20
  WS02006232           JUNCTION     1.04     2.18     9.22     0  01:40        2.18
  WS02006234           JUNCTION     0.91     1.96     9.12     0  01:33        1.96
  WS02006235           JUNCTION     0.90     2.00     9.16     0  01:33        2.00
  WS02006238           JUNCTION     0.92     2.08     9.23     0  02:22        2.08
  WS02006239           JUNCTION     0.85     2.03     9.24     0  02:22        2.03
  WS02006240           JUNCTION     0.79     2.10     9.39     0  01:30        1.83
  WS02006242           JUNCTION     0.81     1.55     8.82     0  01:30        1.55
  WS02006243           JUNCTION     0.69     1.48     8.90     0  01:30        1.48
  WS02006245           JUNCTION     0.66     1.56     9.04     0  01:30        1.42
  WS02006247           JUNCTION     0.66     1.47     8.97     0  01:30        1.47
  WS02006248           JUNCTION     0.60     1.10     8.69     0  01:30        1.10
  WS02006249           JUNCTION     0.61     1.09     8.69     0  01:30        1.09
  WS02006251           JUNCTION     0.86     2.19     9.86     0  02:01        2.19
  WS02006252           JUNCTION     0.60     1.50     9.74     0  00:00        1.50
  WS02006253           JUNCTION     1.02     3.34    10.99     0  01:30        3.25
  WS02006256           JUNCTION     1.15     2.35     9.28     0  00:00        2.35
  WS02006280           JUNCTION     0.52     1.75    10.02     0  01:56        1.75
  WS02006284           JUNCTION     0.75     1.95    10.35     0  01:56        1.94
  WS02006287           JUNCTION     0.49     1.74    10.70     0  01:55        1.73
  WSF200               JUNCTION     0.27     0.55     5.78     0  02:03        0.55
  YS02001580           JUNCTION     0.18     1.05     9.59     0  01:45        0.77
  YS02001583           JUNCTION     0.21     1.14     9.64     0  01:45        0.83
  YS02001586           JUNCTION     0.32     1.13     9.30     0  01:45        1.13
  YS02001590           JUNCTION     0.44     1.40     9.26     0  01:45        1.40
  YS02001593           JUNCTION     0.37     1.45     9.31     0  02:22        1.45
  YS02001596           JUNCTION     0.50     1.68     9.10     0  01:45        1.65
  YS02001600           JUNCTION     0.60     1.87     9.00     0  01:45        1.87
  YS02001601           JUNCTION     0.78     2.06     8.90     0  01:44        2.06
  YS02001602           JUNCTION     0.68     1.87     8.77     0  01:45        1.87
  YS02001605           JUNCTION     0.63     1.78     8.68     0  02:22        1.78
  YS02001607           JUNCTION     0.58     1.68     8.53     0  02:22        1.68
  YS02001610           JUNCTION     0.63     1.68     8.48     0  01:50        1.68
  YS02001613           JUNCTION     0.59     1.68     8.52     0  02:22        1.67
  YS02001616           JUNCTION     0.52     1.61     8.52     0  01:57        1.61
  YS02001619           JUNCTION     0.50     1.61     8.54     0  01:56        1.61
  YS02001622           JUNCTION     0.49     1.60     8.50     0  02:22        1.59
  YS02001625           JUNCTION     0.73     1.78     8.38     0  01:50        1.78
  YS02001629           JUNCTION     0.63     1.85     8.40     0  01:52        1.85
  YS02001633           JUNCTION     0.70     2.08     8.53     0  02:01        2.08
  YS02001641           JUNCTION     0.66     1.96     8.39     0  02:01        1.96
  YS02001644           JUNCTION     0.64     1.92     8.35     0  01:53        1.92
  YS02001647           JUNCTION     0.42     1.78     8.39     0  02:01        1.77
  YS02001649           JUNCTION     0.47     2.03     8.42     0  02:01        2.03
  YS02001652           JUNCTION     0.36     1.96     8.55     0  02:01        1.96
  YS02001655           JUNCTION     0.28     1.83     8.68     0  02:01        1.83
  YS02001658           JUNCTION     0.21     1.67     8.81     0  02:01        1.67
  YS02001661           JUNCTION     0.21     1.53     8.93     0  02:01        1.52
  YS02001664           JUNCTION     0.10     1.13     9.06     0  02:01        1.10
  YS02001745           JUNCTION     0.11     0.99     8.50     0  02:00        0.98
  YS02001748           JUNCTION     0.18     1.79     8.87     0  01:54        1.38
  YS02001751           JUNCTION     0.22     1.62     8.50     0  01:54        1.55
  YS02001754           JUNCTION     0.30     1.78     8.39     0  02:01        1.78
  YS02001757           JUNCTION     0.48     2.09     8.35     0  02:01        2.09
  YS02001759           JUNCTION     0.43     2.13     8.49     0  02:01        2.13
  YS02001762           JUNCTION     0.42     2.08     8.48     0  02:01        2.08
  YS02001765           JUNCTION     0.39     2.02     8.47     0  02:01        2.02
  YS02001767           JUNCTION     0.39     1.97     8.46     0  02:01        1.97
  YS02001770           JUNCTION     0.40     1.95     8.44     0  01:58        1.95
  YS02001774           JUNCTION     0.46     2.02     8.44     0  01:51        2.00
  YS02001779           JUNCTION     0.29     1.68     8.37     0  01:51        1.68
  YS02001783           JUNCTION     0.35     1.32     7.46     0  01:51        1.24
  YS02001784           JUNCTION     0.35     1.21     7.28     0  02:22        1.21
  YS02001786           JUNCTION     0.29     0.91     6.94     0  01:51        0.88
  YS02001788           JUNCTION     0.21     0.63     6.61     0  02:00        0.63
  YS02001790           JUNCTION     0.25     0.73     6.37     0  02:00        0.73
  YS02001791           JUNCTION     0.15     0.44     5.91     0  02:00        0.43
  YS02001793           JUNCTION     0.09     0.26     5.09     0  02:01        0.25
  YS02001882           JUNCTION     0.44     1.76     8.48     0  02:22        1.76
  YS02001884           JUNCTION     0.53     1.90     8.52     0  02:22        1.90
  YS02001887           JUNCTION     0.60     1.90     8.43     0  02:01        1.90
  YS02001890           JUNCTION     0.63     1.81     8.32     0  01:51        1.81
  YS02001895           JUNCTION     0.41     1.57     8.32     0  01:56        1.57
  YS02001898           JUNCTION     0.41     1.57     8.31     0  01:51        1.57
  YS02001901           JUNCTION     0.52     1.68     8.29     0  01:56        1.68
  YS02001904           JUNCTION     0.50     1.64     8.27     0  01:51        1.64
  YS02001907           JUNCTION     0.81     1.96     8.25     0  01:51        1.96
  YS02001910           JUNCTION     0.63     2.01     8.52     0  02:03        2.01
  YS02001915           JUNCTION     0.46     2.00     8.72     0  01:59        2.00
  YS02001918           JUNCTION     0.29     1.81     8.88     0  01:52        1.73
  YS02001920           JUNCTION     0.36     2.14     9.15     0  01:52        1.82
  YS02001923           JUNCTION     0.23     2.03     9.29     0  01:52        1.60
  YS02001926           JUNCTION     0.25     1.90     9.35     0  01:52        1.46
  YS02001929           JUNCTION     0.16     1.78     9.47     0  01:52        1.24
  YS02006553           JUNCTION     0.81     1.99     8.28     0  02:01        1.99
  YS02006556           JUNCTION     0.78     2.00     8.31     0  02:01        2.00
  YS02006558           JUNCTION     0.82     2.06     8.33     0  02:01        2.06
  YS02006561           JUNCTION     0.23     1.04     7.70     0  01:51        0.92
  YS02163301           JUNCTION     0.65     1.95     8.46     0  02:01        1.95
  YS02163601           JUNCTION     0.72     2.07     8.47     0  02:01        2.07
  YS02164001           JUNCTION     0.65     1.97     8.43     0  02:01        1.97
  YSB1154              JUNCTION     0.63     2.10    11.16     0  02:00        2.10
  YSB1171              JUNCTION     0.76     1.95    10.85     0  01:49        1.95
  YSB1174              JUNCTION     0.58     1.93    11.03     0  02:01        1.93
  YSB6556              JUNCTION     0.53     1.80    10.97     0  01:59        1.80
  CC-1                 OUTFALL      0.00     0.00     0.00     0  00:00        0.00
  CC-2                 OUTFALL      0.00     0.00     0.00     0  00:00        0.00
  JK-1                 OUTFALL      0.00     0.00     0.00     0  00:00        0.00
  JK-2                 OUTFALL      0.00     0.00     0.00     0  00:00        0.00
  WSC                  OUTFALL      0.32     0.53     1.20     0  02:06        0.53
  CC-storage           STORAGE      0.39     1.29     6.79     0  02:44        1.29
  JK-storage           STORAGE      0.05     2.99     3.79     0  00:00        0.68
  XR-storage           STORAGE      7.78     9.26     7.26     0  08:00        9.26
  
  
  *******************
  Node Inflow Summary
  *******************
  
  -------------------------------------------------------------------------------------------------
                                  Maximum  Maximum                  Lateral       Total        Flow
                                  Lateral    Total  Time of Max      Inflow      Inflow     Balance
                                   Inflow   Inflow   Occurrence      Volume      Volume       Error
  Node                 Type           LPS      LPS  days hr:min    10^6 ltr    10^6 ltr     Percent
  -------------------------------------------------------------------------------------------------
  HS02004478           JUNCTION      0.00  2304.46     0  01:56           0        11.4      -0.005
  HS02004479           JUNCTION      0.00   386.66     0  01:50           0        1.08       0.074
  HS02004480           JUNCTION      0.00  2061.52     0  01:48           0        8.31       0.024
  HS02004770           JUNCTION   3103.14  3224.54     0  02:02        4.92         5.2       0.056
  HS02004777           JUNCTION      0.03   703.70     0  01:45    0.000864        2.19       0.239
  HS02004785           JUNCTION      0.15   716.49     0  01:45     0.00432        2.19       0.023
  HS02004788           JUNCTION   1067.08  1067.08     0  02:02        1.73        3.89       0.002
  HS02004792           JUNCTION   4063.05  5009.23     0  02:02        6.91        10.8       0.003
  HS02004799           JUNCTION    572.14  1741.45     0  01:47       0.825        7.76       0.041
  HS02004802           JUNCTION      0.00  1233.93     0  01:59           0        3.36       0.119
  HS02004807           JUNCTION    739.43  1935.98     0  02:01        1.05        3.84       0.109
  HS02004817           JUNCTION      0.60  1196.88     0  02:02      0.0173        2.84       0.594
  HS02004824           JUNCTION   1200.33  1789.69     0  02:02        2.19        3.37       0.017
  HS02004830           JUNCTION      0.15   612.83     0  02:01     0.00432        1.41       0.089
  HS02004837           JUNCTION    724.05   730.94     0  01:49        1.26        1.77       0.038
  HS02004842           JUNCTION      0.00   746.44     0  01:49           0        1.18       1.123
  HS02004848           JUNCTION   1152.41  1152.41     0  02:03        2.33        2.94      -0.002
  HS02004852           JUNCTION      0.00   977.35     0  01:49           0        2.41       0.004
  HS02004856           JUNCTION    292.83  1016.35     0  01:48       0.421        2.83       0.062
  HS02004862           JUNCTION    527.29  1364.96     0  02:02       0.983        3.81       0.008
  HS02004870           JUNCTION    401.84  1270.02     0  02:10       0.576        4.11       0.007
  HS02004876           JUNCTION    463.45  1525.54     0  02:09        0.71        4.82       0.015
  HS02004881           JUNCTION    222.76  1701.62     0  02:01       0.313        5.13       0.011
  HS02004901           JUNCTION    707.70   973.37     0  02:01        1.04        1.65       0.108
  WS02001211           JUNCTION      7.35   223.75     0  01:38       0.212        5.44       0.611
  WS02001212           JUNCTION      0.00   206.79     0  03:16           0        5.41       0.273
  WS02001213           JUNCTION      0.00   210.43     0  02:08           0        5.39       0.347
  WS02003059           JUNCTION      0.00   215.09     0  03:17           0        5.39       0.596
  WS02003060           JUNCTION     16.53  1607.58     0  02:04       0.476        15.6       0.093
  WS02003066           JUNCTION      0.00  1400.37     0  02:00           0        9.79       0.016
  WS02003067           JUNCTION      0.00  1399.55     0  02:03           0        9.79       0.044
  WS02003069           JUNCTION      0.32  1605.88     0  02:04     0.00922        15.6       0.099
  WS02003072           JUNCTION      0.00  1604.55     0  02:05           0        15.6       0.134
  WS02003073           JUNCTION      1.82  1606.12     0  02:05      0.0524        15.6       0.138
  WS02004138           JUNCTION      0.00   380.00     0  00:00           0        5.25       0.053
  WS02004139           JUNCTION      0.32   190.32     0  00:32     0.00924        5.26       0.508
  WS02004401           JUNCTION      0.00  1399.62     0  02:03           0         9.9       0.109
  WS02004402           JUNCTION      0.00  1399.64     0  02:03           0        9.89       0.110
  WS02004403           JUNCTION      0.00  1399.82     0  02:01           0        9.88       0.106
  WS02004404           JUNCTION      0.16  1399.94     0  02:03     0.00467        9.87       0.089
  WS02004405           JUNCTION      0.04  1400.40     0  02:03      0.0011        9.86       0.128
  WS02004406           JUNCTION      0.00  1400.02     0  02:03           0        9.85       0.218
  WS02004407           JUNCTION      0.00  1399.75     0  02:01           0        9.83       0.014
  WS02004409           JUNCTION      0.00  1399.60     0  02:03           0        9.83       0.032
  WS02004410           JUNCTION      0.00  1399.68     0  02:01           0        9.82       0.050
  WS02004411           JUNCTION      0.00  1399.74     0  02:03           0        9.82       0.061
  WS02004412           JUNCTION      0.00  1399.70     0  02:03           0        9.81       0.080
  WS02004413           JUNCTION      0.00  1399.54     0  02:03           0         9.8       0.146
  WS02006109           JUNCTION      1.23  1288.98     0  01:56      0.0354        9.61       0.087
  WS02006110           JUNCTION      0.00  1122.75     0  02:29           0        9.02       0.087
  WS02006111           JUNCTION      0.00  1123.04     0  02:30           0        9.01       0.008
  WS02006112           JUNCTION    617.06  1454.92     0  02:01       0.928        9.94       0.207
  WS02006113           JUNCTION      0.00  1122.86     0  02:29           0        9.01       0.022
  WS02006115           JUNCTION      0.00  1399.50     0  02:01           0        9.91       0.075
  WS02006116           JUNCTION      0.00  1400.02     0  02:03           0         9.9       0.032
  WS02006228           JUNCTION      0.00  1287.89     0  01:56           0        9.58       0.040
  WS02006229           JUNCTION      0.00  2304.44     0  01:56           0        13.3       0.064
  WS02006230           JUNCTION     10.28  1026.51     0  01:56       0.296        5.66       0.158
  WS02006231           JUNCTION      0.00   460.62     0  03:39           0        3.81      -0.115
  WS02006232           JUNCTION      0.00   455.76     0  03:39           0        3.79       0.185
  WS02006234           JUNCTION      0.00   453.55     0  03:39           0        3.76      -0.167
  WS02006235           JUNCTION      0.00   475.53     0  03:39           0        3.61       0.206
  WS02006238           JUNCTION      0.00   420.47     0  03:35           0        3.52      -0.096
  WS02006239           JUNCTION      0.00   419.36     0  03:40           0        3.47      -0.129
  WS02006240           JUNCTION      0.00   421.41     0  03:40           0        3.44      -0.010
  WS02006242           JUNCTION      0.00   422.23     0  03:40           0        3.44       0.035
  WS02006243           JUNCTION      0.00   423.01     0  03:40           0        2.91       0.005
  WS02006245           JUNCTION      0.00   423.29     0  03:40           0        2.92       0.314
  WS02006247           JUNCTION      0.00   423.81     0  03:40           0        2.92       0.018
  WS02006248           JUNCTION      0.00   517.74     0  01:30           0        3.26       0.034
  WS02006249           JUNCTION      0.00  1395.57     0  02:01           0         7.7       0.090
  WS02006251           JUNCTION      0.08  1774.38     0  02:01     0.00222        8.09      -0.019
  WS02006252           JUNCTION      0.00   779.73     0  02:01           0        4.02      -0.049
  WS02006253           JUNCTION     72.16  1773.42     0  02:01      0.0969        5.25       0.017
  WS02006256           JUNCTION      0.00   300.00     0  00:00           0       0.755       5.971
  WS02006280           JUNCTION      0.00  2303.68     0  01:56           0        11.3       0.004
  WS02006284           JUNCTION      0.10  2303.54     0  01:55     0.00275        11.3       0.003
  WS02006287           JUNCTION      0.00  2305.60     0  02:00           0        11.3       0.007
  WSF200               JUNCTION      0.00  1400.17     0  02:01           0        9.78       0.006
  YS02001580           JUNCTION      0.00    76.09     0  01:45           0      0.0041       1.455
  YS02001583           JUNCTION      0.00   129.22     0  01:45           0      0.0153      -4.376
  YS02001586           JUNCTION   1334.62  1334.69     0  02:03        2.73        2.75       0.041
  YS02001590           JUNCTION      0.00   317.91     0  02:07           0        1.65      -0.031
  YS02001593           JUNCTION      0.00   317.85     0  02:09           0        1.65       0.012
  YS02001596           JUNCTION      0.00   318.66     0  02:22           0        1.65       0.002
  YS02001600           JUNCTION      0.00   317.88     0  02:10           0        1.65       0.018
  YS02001601           JUNCTION   2178.53  2495.88     0  02:02        3.53        5.17       0.018
  YS02001602           JUNCTION      0.00   503.09     0  02:39           0        2.67       0.017
  YS02001605           JUNCTION      0.00   503.11     0  02:39           0        2.53       0.018
  YS02001607           JUNCTION      0.00   503.06     0  02:39           0        2.53       0.075
  YS02001610           JUNCTION      0.00   954.19     0  02:07           0         3.2       0.073
  YS02001613           JUNCTION      0.00   617.97     0  02:07           0        2.53       0.060
  YS02001616           JUNCTION      0.00   618.12     0  02:07           0        2.53       0.017
  YS02001619           JUNCTION   2295.60  2295.60     0  02:03        4.26        6.12      -0.000
  YS02001622           JUNCTION      0.00  1053.74     0  02:05           0         5.2       0.002
  YS02001625           JUNCTION      0.00  1505.25     0  02:08           0        5.62       0.160
  YS02001629           JUNCTION      0.00   934.92     0  01:49           0        4.37       0.022
  YS02001633           JUNCTION   1686.69  1686.69     0  02:02        2.69        6.42       0.053
  YS02001641           JUNCTION      0.00  1381.54     0  01:50           0        5.79       0.049
  YS02001644           JUNCTION   1431.29  2456.18     0  02:01        2.22        8.04       0.042
  YS02001647           JUNCTION      0.00  1764.83     0  01:50           0        6.84       0.005
  YS02001649           JUNCTION      0.00  2031.37     0  01:51           0        8.96       0.005
  YS02001652           JUNCTION      0.00  1465.84     0  02:01           0        2.17      -0.054
  YS02001655           JUNCTION      0.15  1465.71     0  02:01     0.00443        2.17       0.017
  YS02001658           JUNCTION      0.00  1465.35     0  02:01           0        2.16      -0.002
  YS02001661           JUNCTION      0.00  1465.50     0  02:01           0        2.16       0.006
  YS02001664           JUNCTION   1447.93  1447.93     0  02:01        2.16        2.16      -0.004
  YS02001745           JUNCTION    855.30   855.30     0  02:01        1.21        1.21       0.080
  YS02001748           JUNCTION      0.04   872.57     0  02:01      0.0013        1.21      -0.123
  YS02001751           JUNCTION      0.01   873.15     0  02:01    0.000317        1.22       0.036
  YS02001754           JUNCTION      0.26   873.58     0  02:01     0.00749        1.23      -0.052
  YS02001757           JUNCTION      0.00  3595.29     0  02:01           0        13.9       0.035
  YS02001759           JUNCTION   1252.52  1546.60     0  02:01        1.78        3.75      -0.004
  YS02001762           JUNCTION      0.00   817.56     0  02:10           0        1.98       0.006
  YS02001765           JUNCTION      0.00   816.77     0  02:10           0        1.98       0.006
  YS02001767           JUNCTION      0.54   816.48     0  02:10      0.0154        1.98       0.008
  YS02001770           JUNCTION   1716.38  1716.38     0  02:01        2.59        2.63      -0.005
  YS02001774           JUNCTION      0.00   851.61     0  02:04           0       0.566       0.232
  YS02001779           JUNCTION      0.01   851.38     0  02:04    0.000144       0.523      -0.069
  YS02001783           JUNCTION      0.00  1175.49     0  02:01           0        4.91       0.006
  YS02001784           JUNCTION      1.06  1176.46     0  02:01      0.0305        4.94       0.010
  YS02001786           JUNCTION      0.06  1177.01     0  02:01     0.00162        4.94       0.014
  YS02001788           JUNCTION      0.07  1176.86     0  02:01     0.00204        4.94       0.005
  YS02001790           JUNCTION      0.15  1186.34     0  02:01     0.00446        4.94       0.002
  YS02001791           JUNCTION      0.00  1305.80     0  02:00           0        4.94      -0.006
  YS02001793           JUNCTION      0.00  1259.89     0  02:01           0        4.94      -0.055
  YS02001882           JUNCTION      0.00    37.84     0  01:49           0      0.0132       4.840
  YS02001884           JUNCTION      0.00    48.26     0  01:48           0      0.0489       5.305
  YS02001887           JUNCTION   1314.46  1316.93     0  02:01        1.81        1.84       0.239
  YS02001890           JUNCTION      0.00  1317.02     0  02:01           0         1.8       0.284
  YS02001895           JUNCTION      0.00   517.94     0  02:01           0        1.45       0.116
  YS02001898           JUNCTION      0.00   517.95     0  02:01           0        1.45       0.008
  YS02001901           JUNCTION      0.00   518.08     0  02:01           0        1.45       0.227
  YS02001904           JUNCTION      0.00   517.84     0  02:01           0        1.46       0.196
  YS02001907           JUNCTION      0.00  3050.54     0  02:01           0        5.15       0.350
  YS02001910           JUNCTION      0.00  1992.87     0  02:04           0        3.55       0.203
  YS02001915           JUNCTION   1438.39  2198.28     0  02:02        2.24        3.61       0.045
  YS02001918           JUNCTION      0.00   760.70     0  02:02           0        1.39       0.018
  YS02001920           JUNCTION      2.87   760.51     0  02:02      0.0827        1.38       0.073
  YS02001923           JUNCTION      0.04   757.29     0  02:02     0.00109        1.28      -0.017
  YS02001926           JUNCTION      0.05   757.08     0  02:02      0.0015        1.27       0.037
  YS02001929           JUNCTION    756.47   756.47     0  02:02        1.26        1.26      -0.033
  YS02006553           JUNCTION      0.00   791.26     0  02:22           0        2.74       0.431
  YS02006556           JUNCTION      0.00   791.43     0  02:22           0        2.75       0.299
  YS02006558           JUNCTION   1712.62  1712.62     0  02:01        2.52        5.09       0.068
  YS02006561           JUNCTION      0.00  1175.24     0  02:01           0        4.91       0.001
  YS02163301           JUNCTION      0.00   934.64     0  01:49           0        4.36       0.036
  YS02163601           JUNCTION      0.11  1381.83     0  01:50     0.00317        5.78       0.086
  YS02164001           JUNCTION      0.00  1382.61     0  01:50           0        5.78       0.042
  YSB1154              JUNCTION    742.18   742.18     0  02:02        1.13        1.13       0.129
  YSB1171              JUNCTION      0.00  1499.75     0  02:01           0        2.23       0.288
  YSB1174              JUNCTION    622.14   622.14     0  02:01       0.844       0.845       0.149
  YSB6556              JUNCTION      0.00   725.68     0  02:02           0        1.13       0.109
  CC-1                 OUTFALL       0.00   683.00     0  00:00           0        6.23       0.000
  CC-2                 OUTFALL       0.00   683.00     0  00:00           0        6.23       0.000
  JK-1                 OUTFALL       0.00  1000.00     0  00:00           0        2.46       0.000
  JK-2                 OUTFALL       0.00  1000.00     0  00:00           0        2.46       0.000
  WSC                  OUTFALL       0.00  1605.60     0  02:06           0        15.6       0.000
  CC-storage           STORAGE       0.00  3595.46     0  02:01           0        16.1      -0.323
  JK-storage           STORAGE       0.00  1331.26     0  02:01           0         5.1      -9.994
  XR-storage           STORAGE     200.00   200.00     0  00:00        5.76        6.36       0.001
  
  
  **********************
  Node Surcharge Summary
  **********************
  
  Surcharging occurs when water rises above the top of the highest conduit.
  ---------------------------------------------------------------------
                                               Max. Height   Min. Depth
                                   Hours       Above Crown    Below Rim
  Node                 Type      Surcharged         Meters       Meters
  ---------------------------------------------------------------------
  HS02004478           JUNCTION        0.81          0.669        0.271
  HS02004479           JUNCTION        0.97          0.901        0.149
  HS02004480           JUNCTION        1.01          0.963        0.137
  HS02004770           JUNCTION        0.90          0.720        0.000
  HS02004777           JUNCTION        0.91          0.780        0.000
  HS02004785           JUNCTION        0.85          0.790        0.000
  HS02004788           JUNCTION        0.83          0.720        0.000
  HS02004792           JUNCTION        0.98          0.900        0.000
  HS02004799           JUNCTION        1.14          1.060        0.000
  HS02004802           JUNCTION        1.03          1.092        0.118
  HS02004807           JUNCTION        1.00          1.220        0.000
  HS02004817           JUNCTION        1.63          1.733        0.007
  HS02004824           JUNCTION        0.83          1.310        0.000
  HS02004830           JUNCTION        0.80          1.330        0.000
  HS02004837           JUNCTION        0.75          1.340        0.000
  HS02004842           JUNCTION        0.91          1.520        0.000
  HS02004848           JUNCTION        0.71          1.370        0.000
  HS02004852           JUNCTION        0.74          1.420        0.000
  HS02004856           JUNCTION        0.73          1.300        0.000
  HS02004862           JUNCTION        0.77          1.300        0.000
  HS02004870           JUNCTION        0.79          1.388        0.012
  HS02004876           JUNCTION        0.87          1.537        0.023
  HS02004881           JUNCTION        0.85          1.291        0.159
  HS02004901           JUNCTION        0.90          0.720        0.000
  WS02004401           JUNCTION        1.80          1.121        0.539
  WS02004402           JUNCTION        1.83          1.046        0.694
  WS02004403           JUNCTION        1.84          0.953        1.077
  WS02004404           JUNCTION        2.02          0.954        1.826
  WS02004405           JUNCTION        1.97          0.894        1.906
  WS02004406           JUNCTION        1.94          0.763        1.687
  WS02004407           JUNCTION        0.15          0.083        2.257
  WS02004409           JUNCTION        1.44          0.499        1.861
  WS02004410           JUNCTION        1.39          0.389        2.151
  WS02004411           JUNCTION        1.28          0.282        2.248
  WS02004412           JUNCTION        1.17          0.153        2.157
  WS02004413           JUNCTION        1.60          0.173        2.027
  WS02006109           JUNCTION        2.44          1.820        0.000
  WS02006110           JUNCTION        2.26          1.850        0.000
  WS02006111           JUNCTION        1.57          1.870        0.000
  WS02006112           JUNCTION        2.28          1.680        0.000
  WS02006113           JUNCTION        1.58          1.930        0.000
  WS02006115           JUNCTION        1.71          1.242        1.008
  WS02006116           JUNCTION        1.73          1.167        1.123
  WS02006228           JUNCTION        2.41          2.200        0.000
  WS02006229           JUNCTION        1.35          1.045        0.025
  WS02006230           JUNCTION        2.06          1.570        0.000
  WS02006231           JUNCTION        2.22          1.487        0.043
  WS02006232           JUNCTION        2.45          1.480        0.000
  WS02006234           JUNCTION        2.22          1.240        0.000
  WS02006235           JUNCTION        2.31          1.290        0.000
  WS02006238           JUNCTION        2.37          1.364        0.066
  WS02006239           JUNCTION        2.30          1.290        0.000
  WS02006240           JUNCTION        2.31          1.390        0.000
  WS02006242           JUNCTION        2.43          0.820        0.000
  WS02006243           JUNCTION        2.33          0.770        0.000
  WS02006245           JUNCTION        2.32          0.850        0.000
  WS02006247           JUNCTION        2.35          0.760        0.000
  WS02006248           JUNCTION        2.30          0.380        0.000
  WS02006249           JUNCTION        2.33          0.390        0.000
  WS02006251           JUNCTION        2.15          1.159        0.021
  WS02006252           JUNCTION        2.59          1.100        0.000
  WS02006253           JUNCTION        2.17          2.303        0.177
  WS02006256           JUNCTION        6.34          2.050        0.000
  WS02006280           JUNCTION        1.15          0.695        0.085
  WS02006284           JUNCTION        1.05          0.667        0.133
  WS02006287           JUNCTION        0.92          0.741        0.149
  YS02001580           JUNCTION        0.90          0.450        0.000
  YS02001583           JUNCTION        0.91          0.500        0.000
  YS02001586           JUNCTION        1.01          0.510        0.000
  YS02001590           JUNCTION        1.10          0.750        0.000
  YS02001593           JUNCTION        1.10          0.826        0.014
  YS02001596           JUNCTION        1.24          0.954        0.116
  YS02001600           JUNCTION        1.44          1.190        0.000
  YS02001601           JUNCTION        1.71          1.440        0.000
  YS02001602           JUNCTION        1.63          1.270        0.000
  YS02001605           JUNCTION        1.58          1.180        0.000
  YS02001607           JUNCTION        1.02          0.680        0.000
  YS02001610           JUNCTION        1.06          0.680        0.000
  YS02001613           JUNCTION        1.01          0.680        0.020
  YS02001616           JUNCTION        0.96          0.610        0.000
  YS02001619           JUNCTION        0.95          0.610        0.000
  YS02001622           JUNCTION        0.94          0.598        0.022
  YS02001625           JUNCTION        1.17          0.780        0.000
  YS02001629           JUNCTION        0.84          0.470        0.000
  YS02001633           JUNCTION        1.18          1.060        0.000
  YS02001641           JUNCTION        1.04          0.957        0.143
  YS02001644           JUNCTION        0.99          0.920        0.000
  YS02001647           JUNCTION        0.70          0.780        0.120
  YS02001649           JUNCTION        0.79          1.033        0.017
  YS02001652           JUNCTION        0.58          0.927        0.203
  YS02001655           JUNCTION        0.43          0.834        0.366
  YS02001658           JUNCTION        0.33          0.668        0.632
  YS02001661           JUNCTION        0.15          0.458        0.932
  YS02001664           JUNCTION        0.01          0.131        1.179
  YS02001748           JUNCTION        0.22          0.712        0.478
  YS02001751           JUNCTION        0.35          0.620        0.580
  YS02001754           JUNCTION        0.44          0.734        0.416
  YS02001757           JUNCTION        0.81          1.092        0.118
  YS02001759           JUNCTION        0.71          1.126        0.084
  YS02001762           JUNCTION        0.68          1.081        0.069
  YS02001765           JUNCTION        0.63          1.022        0.078
  YS02001767           JUNCTION        0.59          0.973        0.057
  YS02001770           JUNCTION        0.57          0.920        0.000
  YS02001774           JUNCTION        0.66          1.017        0.033
  YS02001779           JUNCTION        0.46          0.680        0.000
  YS02001783           JUNCTION        0.73          0.520        1.080
  YS02001784           JUNCTION        0.70          0.415        1.075
  YS02001786           JUNCTION        0.58          0.111        1.319
  YS02001882           JUNCTION        0.66          0.765        0.065
  YS02001884           JUNCTION        0.67          0.844        0.026
  YS02001887           JUNCTION        0.72          0.845        0.105
  YS02001890           JUNCTION        0.74          0.760        0.000
  YS02001895           JUNCTION        0.65          0.570        0.180
  YS02001898           JUNCTION        0.64          0.541        0.199
  YS02001901           JUNCTION        0.70          0.679        0.191
  YS02001904           JUNCTION        0.69          0.641        0.209
  YS02001907           JUNCTION        1.00          0.950        0.000
  YS02001910           JUNCTION        0.77          1.014        0.086
  YS02001915           JUNCTION        0.66          1.000        0.000
  YS02001918           JUNCTION        0.56          0.810        0.000
  YS02001920           JUNCTION        0.58          1.140        0.000
  YS02001923           JUNCTION        0.22          0.820        0.000
  YS02001926           JUNCTION        0.27          0.900        0.000
  YS02001929           JUNCTION        0.12          0.780        0.000
  YS02006553           JUNCTION        1.03          0.994        0.196
  YS02006556           JUNCTION        0.88          0.962        0.388
  YS02006558           JUNCTION        0.87          0.963        0.437
  YS02006561           JUNCTION        0.52          0.241        0.909
  YS02163301           JUNCTION        1.15          0.946        0.084
  YS02163601           JUNCTION        1.22          1.072        0.008
  YS02164001           JUNCTION        1.06          0.969        0.131
  YSB1154              JUNCTION        1.32          1.400        0.000
  YSB1171              JUNCTION        1.32          1.100        0.000
  YSB1174              JUNCTION        1.18          1.226        0.024
  YSB6556              JUNCTION        1.09          1.100        0.000
  
  
  *********************
  Node Flooding Summary
  *********************
  
  Flooding refers to all water that overflows a node, whether it ponds or not.
  --------------------------------------------------------------------------
                                                             Total   Maximum
                                 Maximum   Time of Max       Flood    Ponded
                        Hours       Rate    Occurrence      Volume     Depth
  Node                 Flooded       LPS   days hr:min    10^6 ltr    Meters
  --------------------------------------------------------------------------
  HS02004770              0.65   2958.18      0  02:02       2.420     0.000
  HS02004777              0.01     40.66      0  01:46       0.000     0.000
  HS02004785              0.01     79.57      0  01:46       0.000     0.000
  HS02004788              0.01    180.07      0  01:46       0.001     0.000
  HS02004792              0.66   3866.88      0  02:02       3.832     0.000
  HS02004799              0.37    409.14      0  02:01       0.246     0.000
  HS02004807              0.30    703.65      0  02:01       0.446     0.000
  HS02004824              0.25    593.74      0  02:02       0.316     0.000
  HS02004830              0.01     31.38      0  01:49       0.000     0.000
  HS02004837              0.01     72.13      0  01:49       0.000     0.000
  HS02004842              0.23    712.04      0  02:02       0.322     0.000
  HS02004848              0.01    181.22      0  01:49       0.000     0.000
  HS02004852              0.01    265.48      0  01:49       0.000     0.000
  HS02004856              0.01     27.36      0  01:49       0.000     0.000
  HS02004862              0.20    740.64      0  02:02       0.280     0.000
  HS02004901              0.75    973.26      0  02:01       1.410     0.000
  WS02006109              0.72    451.30      0  02:02       0.583     0.000
  WS02006110              0.01     30.48      0  01:32       0.000     0.000
  WS02006111              0.01     63.58      0  01:32       0.000     0.000
  WS02006112              0.06     56.96      0  02:01       0.008     0.000
  WS02006113              0.01     71.78      0  01:32       0.000     0.000
  WS02006228              0.01      1.11      0  02:01       0.000     0.000
  WS02006230              1.06    573.67      0  01:56       1.583     0.000
  WS02006232              0.33      4.75      0  02:22       0.000     0.000
  WS02006234              1.13     86.49      0  02:04       0.233     0.000
  WS02006235              0.01     15.20      0  01:36       0.000     0.000
  WS02006239              0.01      0.06      0  02:22       0.000     0.000
  WS02006240              0.01    109.61      0  01:30       0.000     0.000
  WS02006242              1.35    130.17      0  01:58       0.525     0.000
  WS02006243              0.01    127.21      0  01:30       0.000     0.000
  WS02006245              0.01    136.73      0  01:30       0.000     0.000
  WS02006247              0.01     87.57      0  01:30       0.000     0.000
  WS02006248              1.62    346.72      0  01:30       1.711     0.000
  WS02006249              2.17   1334.71      0  02:01       5.802     0.000
  WS02006252              0.79    779.51      0  02:01       1.179     0.000
  WS02006256              0.70    299.86      0  01:40       0.582     0.000
  YS02001580              0.01     41.67      0  01:45       0.000     0.000
  YS02001583              0.01     66.59      0  01:45       0.000     0.000
  YS02001586              0.76   1016.93      0  02:03       1.085     0.000
  YS02001590              0.01      3.72      0  01:45       0.000     0.000
  YS02001600              0.01      1.68      0  01:45       0.000     0.000
  YS02001601              0.92   2097.72      0  02:02       2.498     0.000
  YS02001602              0.71     61.96      0  02:01       0.147     0.000
  YS02001605              0.01      0.04      0  02:22       0.000     0.000
  YS02001607              0.01      0.33      0  02:22       0.000     0.000
  YS02001610              0.64    953.88      0  02:08       1.346     0.000
  YS02001616              0.08      4.80      0  02:22       0.000     0.000
  YS02001619              0.19    629.20      0  02:03       0.239     0.000
  YS02001625              0.56   1505.10      0  02:09       1.884     0.000
  YS02001629              0.28    467.69      0  02:02       0.213     0.000
  YS02001633              0.01      0.37      0  02:01       0.000     0.000
  YS02001644              0.30   2456.18      0  02:01       1.227     0.000
  YS02001770              0.11    585.46      0  02:01       0.120     0.000
  YS02001779              0.27    851.23      0  02:04       0.505     0.000
  YS02001890              0.30    799.85      0  02:01       0.347     0.000
  YS02001907              0.50   3050.11      0  02:01       2.559     0.000
  YS02001915              0.07    205.67      0  02:02       0.031     0.000
  YS02001918              0.01    110.06      0  01:52       0.001     0.000
  YS02001920              0.01     23.49      0  01:52       0.000     0.000
  YS02001923              0.01     44.61      0  01:52       0.000     0.000
  YS02001926              0.01     35.52      0  01:52       0.000     0.000
  YS02001929              0.01    182.32      0  01:52       0.000     0.000
  YSB1154                 0.03     17.93      0  02:01       0.001     0.000
  YSB1171                 0.51   1499.47      0  02:01       1.430     0.000
  YSB6556                 0.08     85.84      0  02:02       0.017     0.000
  
  
  **********************
  Storage Volume Summary
  **********************
  
  --------------------------------------------------------------------------------------------------
                         Average     Avg  Evap Exfil       Maximum     Max    Time of Max    Maximum
                          Volume    Pcnt  Pcnt  Pcnt        Volume    Pcnt     Occurrence    Outflow
  Storage Unit           1000 m3    Full  Loss  Loss       1000 m3    Full    days hr:min        LPS
  --------------------------------------------------------------------------------------------------
  CC-storage               1.092      17     0     0         3.592      56       0  02:44    1783.53
  JK-storage               0.003       1     0     0         0.150      52       0  00:00    2300.00
  XR-storage               0.933      65     0     0         1.111      77       0  08:00     380.00
  
  
  ***********************
  Outfall Loading Summary
  ***********************
  
  -----------------------------------------------------------
                         Flow       Avg       Max       Total
                         Freq      Flow      Flow      Volume
  Outfall Node           Pcnt       LPS       LPS    10^6 ltr
  -----------------------------------------------------------
  CC-1                  53.26    683.00    683.00       6.234
  CC-2                  53.26    683.00    683.00       6.234
  JK-1                  15.28    992.78   1000.00       2.458
  JK-2                  15.28    992.78   1000.00       2.458
  WSC                   99.95    742.47   1605.60      15.591
  -----------------------------------------------------------
  System                47.40   4094.03   4971.53      32.975
  
  
  ********************
  Link Flow Summary
  ********************
  
  -----------------------------------------------------------------------------
                                 Maximum  Time of Max   Maximum    Max/    Max/
                                  |Flow|   Occurrence   |Veloc|    Full    Full
  Link                 Type          LPS  days hr:min     m/sec    Flow   Depth
  -----------------------------------------------------------------------------
  1                    CONDUIT   1605.60     0  02:06      3.76    0.56    0.53
  HS02004478WS02006287 CONDUIT   2305.60     0  02:00      2.60    0.65    1.00
  HS02004479HS02004480 CONDUIT    386.79     0  01:50      0.55    0.37    1.00
  HS02004480HS02004478 CONDUIT   2058.50     0  01:48      2.94    8.67    1.00
  HS02004770HS02004777 CONDUIT    703.67     0  01:45      1.01    1.29    1.00
  HS02004777HS02004785 CONDUIT    716.34     0  01:45      1.08    0.88    1.00
  HS02004785HS02004788 CONDUIT    632.60     0  01:46      1.36    4.77    1.00
  HS02004788HS02004792 CONDUIT    984.63     0  02:01      1.43    0.65    1.00
  HS02004792HS02004799 CONDUIT   1616.72     0  01:47      2.31    0.99    1.00
  HS02004799HS02004480 CONDUIT   1740.79     0  01:47      2.49    2.20    1.00
  HS02004802HS02004478 CONDUIT   1234.08     0  01:59      1.76    1.09    1.00
  HS02004807HS02004802 CONDUIT   1233.93     0  01:59      1.76    2.36    1.00
  HS02004817HS02004807 CONDUIT   1196.88     0  02:09      1.71    0.71    1.00
  HS02004817HS02004824 CONDUIT   1196.28     0  02:02      1.71    0.54    1.00
  HS02004824HS02004830 CONDUIT    612.92     0  02:00      0.88    0.80    1.00
  HS02004830HS02004837 CONDUIT    612.68     0  02:01      0.90    0.61    1.00
  HS02004837HS02004842 CONDUIT    746.44     0  01:49      1.07    0.45    1.00
  HS02004842HS02004848 CONDUIT    745.48     0  01:49      1.14    0.43    1.00
  HS02004848HS02004852 CONDUIT    977.35     0  01:49      1.55    1.10    1.00
  HS02004852HS02004856 CONDUIT    944.18     0  01:48      1.44    1.08    1.00
  HS02004856HS02004862 CONDUIT    982.13     0  01:48      1.65    0.98    1.00
  HS02004862HS02004870 CONDUIT   1105.16     0  02:11      1.77    1.19    1.00
  HS02004870HS02004876 CONDUIT   1270.22     0  02:10      1.81    0.84    1.00
  HS02004876HS02004881 CONDUIT   1525.69     0  02:09      2.18   16.23    1.00
  HS02004881HS02006253 CONDUIT   1701.26     0  02:01      2.76    0.33    1.00
  HS02004901HS02004770 CONDUIT    265.79     0  02:25      0.38    1.00    1.00
  WS02001211WS02001212 CONDUIT    206.79     0  03:16      0.54    0.16    0.72
  WS02001212WS02001213 CONDUIT    210.43     0  02:08      1.04    0.32    0.59
  WS02001213WS02003059 CONDUIT    215.09     0  03:17      0.47    0.35    0.92
  WS02003059WS02003060 CONDUIT    220.23     0  03:16      0.65    0.14    0.84
  WS02003060WS02003069 CONDUIT   1605.56     0  02:04      2.12    0.63    0.64
  WS02003066WSF200     CONDUIT   1400.17     0  02:01      3.30    0.24    0.40
  WS02003067WS02003066 CONDUIT   1400.37     0  02:00      2.09    0.45    0.58
  WS02003069WS02003072 CONDUIT   1604.55     0  02:05      1.94    0.77    0.69
  WS02003072WS02003073 CONDUIT   1604.30     0  02:05      2.10    3.47    0.64
  WS02004138WS02004139 CONDUIT    190.00     0  00:32      2.16    0.04    0.43
  WS02004139WS02001211 CONDUIT    216.40     0  01:38      0.54    0.27    0.63
  WS02004401WS02004402 CONDUIT   1399.64     0  02:03      1.78    1.68    1.00
  WS02004402WS02004403 CONDUIT   1399.82     0  02:01      1.78    2.01    1.00
  WS02004403WS02004404 CONDUIT   1399.78     0  02:03      1.78    1.01    1.00
  WS02004404WS02004405 CONDUIT   1400.36     0  02:03      1.78   13.72    1.00
  WS02004405WS02004406 CONDUIT   1400.02     0  02:03      1.78    2.76    1.00
  WS02004406WS02004407 CONDUIT   1399.75     0  02:01      1.81    0.63    1.00
  WS02004407WS02004409 CONDUIT   1399.60     0  02:03      1.94    0.50    1.00
  WS02004409WS02004410 CONDUIT   1399.68     0  02:01      1.78    1.81    1.00
  WS02004410WS02004411 CONDUIT   1399.74     0  02:03      1.78    1.91    1.00
  WS02004411WS02004412 CONDUIT   1399.70     0  02:03      1.78    1.99    1.00
  WS02004412WS02004413 CONDUIT   1399.54     0  02:03      1.78    0.94    1.00
  WS02004413WS02003067 CONDUIT   1399.55     0  02:03      2.13    0.60    0.78
  WS02006109WS02006110 CONDUIT   1122.75     0  02:29      2.23    2.16    1.00
  WS02006110WS02006113 CONDUIT   1122.86     0  02:29      2.23    1.02    1.00
  WS02006111WS02006112 CONDUIT   1122.97     0  02:29      2.23    0.53    1.00
  WS02006112WS02006115 CONDUIT   1399.50     0  02:01      1.78    0.83    1.00
  WS02006113WS02006111 CONDUIT   1123.04     0  02:30      2.67    1.35    1.00
  WS02006115WS02006116 CONDUIT   1400.02     0  02:03      1.78    1.80    1.00
  WS02006116WS02004401 CONDUIT   1399.62     0  02:03      1.78    1.93    1.00
  WS02006228WS02006109 CONDUIT   1287.75     0  01:56      2.56    5.63    1.00
  WS02006229WS02006228 CONDUIT   1287.89     0  01:56      2.56    4.27    1.00
  WS02006230WS02006229 CONDUIT   1016.23     0  01:56      2.64   22.62    1.00
  WS02006231WS02006230 CONDUIT    464.07     0  03:39      1.38    7.04    1.00
  WS02006232WS02006231 CONDUIT    460.62     0  03:39      1.20    0.97    1.00
  WS02006234WS02006232 CONDUIT    455.76     0  03:39      1.39    0.92    1.00
  WS02006235WS02006234 CONDUIT    453.55     0  03:39      1.21    4.79    1.00
  WS02006238WS02006235 CONDUIT    429.63     0  03:39      1.45    0.96    1.00
  WS02006239WS02006238 CONDUIT    420.47     0  03:35      1.10    1.35    1.00
  WS02006240WS02006239 CONDUIT    419.36     0  03:40      1.25    1.32    1.00
  WS02006242WS02006240 CONDUIT    421.41     0  03:40      1.15    1.67    1.00
  WS02006243WS02006242 CONDUIT    422.23     0  03:40      1.36    0.90    1.00
  WS02006245WS02006243 CONDUIT    423.01     0  03:40      1.38    1.25    1.00
  WS02006247WS02006245 CONDUIT    423.29     0  03:40      1.37    3.36    1.00
  WS02006248WS02006247 CONDUIT    423.81     0  03:40      1.42    0.92    1.00
  WS02006249WS02006248 CONDUIT    517.74     0  01:30      1.38    2.84    1.00
  WS02006251WS02006249 CONDUIT   1395.57     0  02:01      3.63    4.02    1.00
  WS02006252WS02006251 CONDUIT    411.93     0  01:30      4.83    1.51    1.00
  WS02006253WS02006251 CONDUIT   1774.31     0  02:01      4.61    5.32    1.00
  WS02006256WS02006235 CONDUIT    288.93     0  00:00      4.23    3.06    1.00
  WS02006280WS02006229 CONDUIT   2304.44     0  01:56      4.48    0.49    1.00
  WS02006284WS02006280 CONDUIT   2303.68     0  01:56      3.02    0.96    1.00
  WS02006287WS02006284 CONDUIT   2303.44     0  01:55      2.93    1.07    1.00
  WSF200WS02003060     CONDUIT   1404.43     0  02:00      2.40    0.31    0.53
  YS02001580YS02001583 CONDUIT     76.09     0  01:45      0.55    0.29    1.00
  YS02001583YS02001586 CONDUIT    129.22     0  01:45      0.55    0.20    1.00
  YS02001586YS02001590 CONDUIT    317.91     0  02:07      1.29    0.56    1.00
  YS02001590YS02001593 CONDUIT    317.85     0  02:09      1.12    2.00    1.00
  YS02001593YS02001596 CONDUIT    318.66     0  02:22      1.77    0.50    1.00
  YS02001596YS02001600 CONDUIT    317.88     0  02:10      1.26    0.62    1.00
  YS02001600YS02001601 CONDUIT    317.84     0  02:07      1.12    0.55    1.00
  YS02001601YS02001602 CONDUIT    503.09     0  02:39      1.78    1.82    1.00
  YS02001602YS02001605 CONDUIT    503.11     0  02:39      1.78   10.65    1.00
  YS02001605YS02001607 CONDUIT    503.06     0  02:39      1.78    2.76    1.00
  YS02001607YS02001610 CONDUIT    503.57     0  02:39      0.64    0.48    1.00
  YS02001610YS02001613 CONDUIT    618.21     0  02:07      0.79    0.71    1.00
  YS02001613YS02001616 CONDUIT    617.97     0  02:07      0.79    0.53    1.00
  YS02001616YS02001619 CONDUIT    618.12     0  02:07      0.79    1.07    1.00
  YS02001619YS02001622 CONDUIT   1053.74     0  02:05      1.34    1.55    1.00
  YS02001622YS02001625 CONDUIT   1053.54     0  02:08      1.34    0.56    1.00
  YS02001625YS02001629 CONDUIT    934.92     0  01:49      1.19    0.44    1.00
  YS02001629YS02163301 CONDUIT    934.64     0  01:49      1.19    1.15    1.00
  YS02001633YS02163601 CONDUIT   1381.72     0  01:50      1.76    1.45    1.00
  YS02001641YS02001644 CONDUIT   1382.51     0  01:50      1.76    4.47    1.00
  YS02001644YS02001647 CONDUIT   1764.83     0  01:50      2.25    1.04    1.00
  YS02001647YS02001649 CONDUIT   1769.66     0  01:50      2.30    0.93    1.00
  YS02001649YS02001757 CONDUIT   2031.23     0  01:51      2.59    1.23    1.00
  YS02001652YS02001649 CONDUIT   1466.54     0  02:01      1.87    0.73    1.00
  YS02001655YS02001652 CONDUIT   1465.84     0  02:01      1.87    0.71    1.00
  YS02001658YS02001655 CONDUIT   1465.55     0  02:01      1.87    0.62    1.00
  YS02001661YS02001658 CONDUIT   1465.35     0  02:01      2.28    0.58    1.00
  YS02001664YS02001661 CONDUIT   1465.50     0  02:01      2.26    0.46    1.00
  YS02001745YS02001748 CONDUIT    872.52     0  02:01      2.09    0.34    0.99
  YS02001748YS02001751 CONDUIT    873.14     0  02:01      1.60    0.44    1.00
  YS02001751YS02001754 CONDUIT    873.32     0  02:01      1.34    0.42    1.00
  YS02001754YS02001757 CONDUIT    873.62     0  02:01      1.11    0.35    1.00
  YS02001757CaochengTiaoxuchi CONDUIT   3595.46     0  02:01      6.61    1.56    1.00
  YS02001759YS02001757 CONDUIT   1546.14     0  02:01      1.97    1.10    1.00
  YS02001762YS02001759 CONDUIT    818.17     0  02:10      1.04    0.94    1.00
  YS02001765YS02001762 CONDUIT    817.56     0  02:10      1.04    0.77    1.00
  YS02001767YS02001765 CONDUIT    816.77     0  02:10      1.04    1.03    1.00
  YS02001770YS02001767 CONDUIT    815.94     0  02:10      1.04    3.23    1.00
  YS02001774YS02001770 CONDUIT    851.61     0  02:04      1.08    0.54    1.00
  YS02001779YS02001774 CONDUIT    851.38     0  02:04      1.08    0.43    1.00
  YS02001783YS02001784 CONDUIT   1175.40     0  02:01      2.34    1.62    1.00
  YS02001784YS02001785 CONDUIT   1176.95     0  02:01      2.34    2.74    1.00
  YS02001786YS02001788 CONDUIT   1176.79     0  02:01      2.50    2.27    0.89
  YS02001788YS02001790 CONDUIT   1186.19     0  02:01      2.72    0.87    0.85
  YS02001790YS02001791 CONDUIT   1305.80     0  02:00      3.44    1.42    0.71
  YS02001791YS02001793 CONDUIT   1259.89     0  02:01      6.47    0.54    0.43
  YS02001793JiankangQianchi CONDUIT   1331.26     0  02:01     24.71    0.11    0.50
  YS02001882YS02001884 CONDUIT     37.84     0  01:49      0.18    0.04    1.00
  YS02001884YS02001887 CONDUIT     48.26     0  01:48      0.13    0.06    1.00
  YS02001887YS02001890 CONDUIT   1317.02     0  02:01      1.68    2.25    1.00
  YS02001890YS02001895 CONDUIT    517.94     0  02:01      0.66    0.24    1.00
  YS02001895YS02001898 CONDUIT    517.95     0  02:01      0.66    0.90    1.00
  YS02001898YS02001901 CONDUIT    518.08     0  02:01      0.66    0.33    1.00
  YS02001901YS02001904 CONDUIT    517.84     0  02:01      0.66    0.80    1.00
  YS02001904YS02001907 CONDUIT    518.09     0  02:01      0.66    0.18    1.00
  YS02001907YS02006553 CONDUIT    791.26     0  02:22      0.88    0.93    1.00
  YS02001910YS02001907 CONDUIT   1992.80     0  02:03      2.54    1.12    1.00
  YS02001915YS02001910 CONDUIT   1992.87     0  02:04      2.54    0.99    1.00
  YS02001918YS02001915 CONDUIT    760.87     0  02:02      0.97    0.42    1.00
  YS02001920YS02001918 CONDUIT    760.70     0  02:02      0.97    0.74    1.00
  YS02001923YS02001920 CONDUIT    757.64     0  02:02      0.96    0.34    1.00
  YS02001926YS02001923 CONDUIT    757.25     0  02:02      0.96    1.08    1.00
  YS02001929YS02001926 CONDUIT    757.03     0  02:02      1.10    0.36    1.00
  YS02006553YS02006556 CONDUIT    791.43     0  02:22      1.01    0.68    1.00
  YS02006556YS02006558 CONDUIT    792.41     0  02:22      1.01    0.63    1.00
  YS02006558YS02006561 CONDUIT   1175.24     0  02:01      4.16    2.60    1.00
  YS02006561YS02001783 CONDUIT   1175.49     0  02:01      2.34    0.61    1.00
  YS02163301YS02001633 CONDUIT    934.57     0  01:49      1.19    0.88    1.00
  YS02163601YS02164001 CONDUIT   1382.61     0  01:50      1.76    1.23    1.00
  YS02164001YS02001641 CONDUIT   1381.54     0  01:50      1.76    1.89    1.00
  YSB1154YSB6556       CONDUIT    725.68     0  02:02      1.89    1.30    1.00
  YSB1171HS02004479    CONDUIT    386.66     0  01:50      0.77    0.26    1.00
  YSB1174YSB1171       CONDUIT    622.45     0  02:01      1.62    0.95    1.00
  YSB6556YSB1171       CONDUIT    639.84     0  02:04      1.66    0.66    1.00
  CC-R1                PUMP       683.00     0  00:00              1.00
  CC-R2                PUMP       683.00     0  00:00              1.00
  CC-S1                PUMP       200.00     0  00:00              1.00
  CC-S2                PUMP       200.00     0  00:00              1.00
  JK-R1                PUMP      1000.00     0  00:00              1.00
  JK-R2                PUMP      1000.00     0  00:00              1.00
  JK-S                 PUMP       300.00     0  00:00              1.00
  XR-1                 PUMP        95.00     0  00:00              1.00
  XR-2                 PUMP        95.00     0  00:00              1.00
  XR-3                 PUMP        95.00     0  00:00              1.00
  XR-4                 PUMP        95.00     0  00:00              1.00
  
  
  ***************************
  Flow Classification Summary
  ***************************
  
  -------------------------------------------------------------------------------------
                      Adjusted    ---------- Fraction of Time in Flow Class ---------- 
                       /Actual         Up    Down  Sub   Sup   Up    Down  Norm  Inlet 
  Conduit               Length    Dry  Dry   Dry   Crit  Crit  Crit  Crit  Ltd   Ctrl  
  -------------------------------------------------------------------------------------
  1                       1.00   0.00  0.00  0.00  0.00  1.00  0.00  0.00  0.40  0.00
  HS02004478WS02006287    1.00   0.14  0.00  0.00  0.63  0.23  0.00  0.00  0.58  0.00
  HS02004479HS02004480    1.00   0.05  0.00  0.00  0.95  0.00  0.00  0.00  0.10  0.00
  HS02004480HS02004478    1.00   0.13  0.00  0.00  0.58  0.00  0.00  0.30  0.00  0.00
  HS02004770HS02004777    1.00   0.00  0.13  0.00  0.87  0.00  0.00  0.00  0.02  0.00
  HS02004777HS02004785    1.00   0.00  0.00  0.00  1.00  0.00  0.00  0.00  0.10  0.00
  HS02004785HS02004788    1.00   0.00  0.00  0.00  1.00  0.00  0.00  0.00  0.00  0.00
  HS02004788HS02004792    1.00   0.00  0.00  0.00  0.99  0.01  0.00  0.00  0.86  0.00
  HS02004792HS02004799    1.00   0.00  0.00  0.00  0.99  0.01  0.00  0.00  0.80  0.00
  HS02004799HS02004480    1.00   0.00  0.05  0.00  0.86  0.00  0.08  0.00  0.00  0.00
  HS02004802HS02004478    1.00   0.13  0.00  0.00  0.87  0.00  0.00  0.00  0.02  0.00
  HS02004807HS02004802    1.00   0.13  0.00  0.00  0.87  0.00  0.00  0.01  0.00  0.00
  HS02004817HS02004807    1.00   0.00  0.13  0.00  0.87  0.00  0.00  0.00  0.01  0.00
  HS02004817HS02004824    1.00   0.00  0.00  0.00  1.00  0.00  0.00  0.00  0.78  0.00
  HS02004824HS02004830    1.00   0.00  0.00  0.00  1.00  0.00  0.00  0.00  0.01  0.00
  HS02004830HS02004837    1.00   0.00  0.00  0.00  1.00  0.00  0.00  0.00  0.83  0.00
  HS02004837HS02004842    1.00   0.00  0.00  0.00  1.00  0.00  0.00  0.00  0.11  0.00
  HS02004842HS02004848    1.00   0.00  0.13  0.00  0.87  0.00  0.00  0.00  0.54  0.00
  HS02004848HS02004852    1.00   0.13  0.00  0.00  0.87  0.00  0.00  0.00  0.68  0.00
  HS02004852HS02004856    1.00   0.13  0.00  0.00  0.87  0.00  0.00  0.00  0.64  0.00
  HS02004856HS02004862    1.00   0.00  0.14  0.00  0.86  0.00  0.00  0.00  0.71  0.00
  HS02004862HS02004870    1.00   0.00  0.00  0.00  1.00  0.00  0.00  0.00  0.02  0.00
  HS02004870HS02004876    1.00   0.00  0.00  0.00  0.97  0.02  0.00  0.00  0.81  0.00
  HS02004876HS02004881    1.00   0.02  0.00  0.00  0.78  0.20  0.00  0.00  0.00  0.00
  HS02004881HS02006253    1.00   0.00  0.07  0.00  0.49  0.01  0.00  0.43  0.16  0.00
  HS02004901HS02004770    1.00   0.13  0.00  0.00  0.87  0.00  0.00  0.00  0.00  0.00
  WS02001211WS02001212    1.00   0.00  0.03  0.00  0.97  0.00  0.00  0.00  0.00  0.00
  WS02001212WS02001213    1.00   0.03  0.00  0.00  0.53  0.00  0.44  0.00  0.00  0.00
  WS02001213WS02003059    1.00   0.00  0.00  0.00  0.99  0.00  0.00  0.00  0.00  0.00
  WS02003059WS02003060    1.00   0.00  0.00  0.00  1.00  0.00  0.00  0.00  0.03  0.00
  WS02003060WS02003069    1.00   0.00  0.00  0.00  0.97  0.03  0.00  0.00  0.51  0.00
  WS02003066WSF200        1.00   0.08  0.00  0.00  0.00  0.92  0.00  0.00  0.65  0.00
  WS02003067WS02003066    1.00   0.07  0.01  0.00  0.93  0.00  0.00  0.00  0.00  0.00
  WS02003069WS02003072    1.00   0.00  0.00  0.00  1.00  0.00  0.00  0.00  0.62  0.00
  WS02003072WS02003073    1.00   0.00  0.00  0.00  0.00  0.00  0.00  1.00  0.00  0.00
  WS02004138WS02004139    1.00   0.00  0.01  0.00  0.97  0.01  0.00  0.01  0.98  0.00
  WS02004139WS02001211    1.00   0.00  0.00  0.00  0.99  0.00  0.00  0.00  0.00  0.00
  WS02004401WS02004402    1.00   0.03  0.00  0.00  0.97  0.00  0.00  0.00  0.00  0.00
  WS02004402WS02004403    1.00   0.03  0.00  0.00  0.97  0.00  0.00  0.00  0.00  0.00
  WS02004403WS02004404    1.00   0.00  0.03  0.00  0.97  0.00  0.00  0.00  0.00  0.00
  WS02004404WS02004405    1.00   0.00  0.00  0.00  1.00  0.00  0.00  0.00  0.01  0.00
  WS02004405WS02004406    1.00   0.00  0.00  0.00  1.00  0.00  0.00  0.00  0.00  0.00
  WS02004406WS02004407    1.00   0.00  0.05  0.00  0.95  0.00  0.00  0.00  0.00  0.00
  WS02004407WS02004409    1.00   0.05  0.00  0.00  0.93  0.01  0.00  0.00  0.78  0.00
  WS02004409WS02004410    1.00   0.05  0.00  0.00  0.95  0.00  0.00  0.00  0.00  0.00
  WS02004410WS02004411    1.00   0.05  0.00  0.00  0.95  0.00  0.00  0.00  0.00  0.00
  WS02004411WS02004412    1.00   0.05  0.00  0.00  0.94  0.00  0.00  0.00  0.00  0.00
  WS02004412WS02004413    1.00   0.06  0.00  0.00  0.94  0.00  0.00  0.00  0.00  0.00
  WS02004413WS02003067    1.00   0.06  0.01  0.00  0.00  0.00  0.93  0.00  0.00  0.00
  WS02006109WS02006110    1.00   0.00  0.01  0.00  0.98  0.00  0.01  0.00  0.00  0.00
  WS02006110WS02006113    1.00   0.01  0.01  0.00  0.98  0.00  0.00  0.00  0.00  0.00
  WS02006111WS02006112    1.00   0.02  0.00  0.00  0.97  0.00  0.00  0.00  0.73  0.00
[...]
  WS02006280WS02006229    1.00   0.13  0.00  0.00  0.35  0.03  0.00  0.49  0.01  0.00
  WS02006284WS02006280    1.00   0.13  0.00  0.00  0.29  0.02  0.00  0.55  0.00  0.00
  WS02006287WS02006284    1.00   0.11  0.02  0.00  0.55  0.31  0.00  0.00  0.64  0.00
  WSF200WS02003060        1.00   0.00  0.08  0.00  0.41  0.52  0.00  0.00  0.61  0.00
  YS02001580YS02001583    1.00   0.23  0.36  0.00  0.41  0.00  0.00  0.00  0.65  0.00
  YS02001583YS02001586    1.00   0.32  0.21  0.00  0.46  0.00  0.00  0.00  0.65  0.00
  YS02001586YS02001590    1.00   0.13  0.00  0.00  0.62  0.02  0.00  0.23  0.32  0.00
  YS02001590YS02001593    1.00   0.13  0.00  0.00  0.30  0.00  0.58  0.00  0.00  0.00
  YS02001593YS02001596    1.00   0.13  0.00  0.00  0.33  0.01  0.00  0.53  0.02  0.00
  YS02001596YS02001600    1.00   0.13  0.00  0.00  0.41  0.02  0.00  0.45  0.03  0.00
  YS02001600YS02001601    1.00   0.13  0.00  0.00  0.87  0.00  0.00  0.00  0.59  0.00
  YS02001601YS02001602    1.00   0.13  0.00  0.00  0.87  0.00  0.00  0.00  0.00  0.00
  YS02001602YS02001605    1.00   0.13  0.00  0.00  0.87  0.00  0.00  0.00  0.00  0.00
  YS02001605YS02001607    1.00   0.13  0.00  0.00  0.87  0.00  0.00  0.00  0.00  0.00
  YS02001607YS02001610    1.00   0.13  0.00  0.00  0.87  0.00  0.00  0.00  0.01  0.00
  YS02001610YS02001613    1.00   0.13  0.00  0.00  0.87  0.00  0.00  0.00  0.00  0.00
  YS02001613YS02001616    1.00   0.13  0.00  0.00  0.87  0.00  0.00  0.00  0.00  0.00
  YS02001616YS02001619    1.00   0.13  0.00  0.00  0.87  0.00  0.00  0.00  0.00  0.00
  YS02001619YS02001622    1.00   0.13  0.00  0.00  0.87  0.00  0.00  0.00  0.33  0.00
  YS02001622YS02001625    1.00   0.13  0.00  0.00  0.87  0.00  0.00  0.00  0.02  0.00
  YS02001625YS02001629    1.00   0.13  0.02  0.00  0.36  0.00  0.50  0.00  0.00  0.00
  YS02001629YS02163301    1.00   0.13  0.00  0.00  0.86  0.00  0.00  0.00  0.00  0.00
  YS02001633YS02163601    1.00   0.00  0.01  0.00  0.99  0.00  0.00  0.00  0.14  0.00
  YS02001641YS02001644    1.00   0.00  0.00  0.00  1.00  0.00  0.00  0.00  0.00  0.00
  YS02001644YS02001647    1.00   0.00  0.14  0.00  0.86  0.00  0.00  0.00  0.00  0.00
  YS02001647YS02001649    1.00   0.00  0.14  0.00  0.60  0.26  0.00  0.00  0.57  0.00
  YS02001649YS02001757    1.00   0.00  0.00  0.00  0.73  0.27  0.00  0.00  0.61  0.00
  YS02001652YS02001649    1.00   0.00  0.00  0.00  0.98  0.02  0.00  0.00  0.72  0.00
  YS02001655YS02001652    1.00   0.00  0.00  0.00  0.38  0.02  0.00  0.60  0.08  0.00
  YS02001658YS02001655    1.00   0.00  0.13  0.00  0.59  0.28  0.00  0.00  0.68  0.00
  YS02001661YS02001658    1.00   0.13  0.00  0.00  0.43  0.44  0.00  0.00  0.71  0.00
  YS02001664YS02001661    1.00   0.13  0.00  0.00  0.58  0.29  0.00  0.00  0.84  0.00
  YS02001745YS02001748    1.00   0.00  0.00  0.00  0.17  0.02  0.00  0.81  0.05  0.00
  YS02001748YS02001751    1.00   0.00  0.00  0.00  0.75  0.24  0.00  0.00  0.79  0.00
  YS02001751YS02001754    1.00   0.00  0.00  0.00  0.32  0.02  0.00  0.67  0.04  0.00
  YS02001754YS02001757    1.00   0.00  0.00  0.00  1.00  0.00  0.00  0.00  0.81  0.00
  YS02001757CaochengTiaoxuchi    1.00   0.00  0.00  0.00  0.41  0.59  0.00  0.00  0.26  0.00
  YS02001759YS02001757    1.00   0.00  0.00  0.00  1.00  0.00  0.00  0.00  0.64  0.00
  YS02001762YS02001759    1.00   0.00  0.00  0.00  1.00  0.00  0.00  0.00  0.05  0.00
  YS02001765YS02001762    1.00   0.00  0.00  0.00  1.00  0.00  0.00  0.00  0.71  0.00
  YS02001767YS02001765    1.00   0.00  0.00  0.00  1.00  0.00  0.00  0.00  0.00  0.00
  YS02001770YS02001767    1.00   0.00  0.00  0.00  1.00  0.00  0.00  0.00  0.00  0.00
  YS02001774YS02001770    1.00   0.00  0.13  0.00  0.73  0.00  0.14  0.00  0.02  0.00
  YS02001779YS02001774    1.00   0.00  0.00  0.00  1.00  0.00  0.00  0.00  0.76  0.00
  YS02001783YS02001784    1.00   0.00  0.15  0.00  0.85  0.00  0.00  0.00  0.56  0.00
  YS02001784YS02001785    1.00   0.00  0.00  0.00  1.00  0.00  0.00  0.00  0.15  0.00
  YS02001786YS02001788    1.00   0.00  0.00  0.00  0.67  0.32  0.00  0.00  0.00  0.00
  YS02001788YS02001790    1.00   0.00  0.00  0.00  0.23  0.77  0.00  0.00  0.78  0.00
  YS02001790YS02001791    1.00   0.00  0.00  0.00  0.01  0.99  0.00  0.00  0.15  0.00
  YS02001791YS02001793    1.00   0.00  0.00  0.00  0.00  1.00  0.00  0.00  0.01  0.00
  YS02001793JiankangQianchi    1.00   0.00  0.00  0.00  0.12  0.87  0.00  0.00  0.59  0.00
  YS02001882YS02001884    1.00   0.13  0.00  0.00  0.87  0.00  0.00  0.00  0.00  0.00
  YS02001884YS02001887    1.00   0.09  0.03  0.00  0.88  0.00  0.00  0.00  0.00  0.00
  YS02001887YS02001890    1.00   0.00  0.00  0.00  0.96  0.00  0.04  0.00  0.00  0.00
  YS02001890YS02001895    1.00   0.00  0.13  0.00  0.86  0.00  0.00  0.00  0.00  0.00
  YS02001895YS02001898    1.00   0.14  0.00  0.00  0.85  0.00  0.01  0.00  0.00  0.00
  YS02001898YS02001901    1.00   0.14  0.00  0.00  0.86  0.00  0.00  0.00  0.01  0.00
  YS02001901YS02001904    1.00   0.14  0.00  0.00  0.86  0.00  0.00  0.00  0.00  0.00
  YS02001904YS02001907    1.00   0.00  0.13  0.00  0.86  0.00  0.00  0.00  0.00  0.00
  YS02001907YS02006553    1.00   0.00  0.02  0.00  0.98  0.00  0.00  0.00  0.00  0.00
  YS02001910YS02001907    1.00   0.00  0.00  0.00  0.96  0.01  0.00  0.03  0.11  0.00
  YS02001915YS02001910    1.00   0.00  0.00  0.00  0.97  0.03  0.00  0.00  0.12  0.00
  YS02001918YS02001915    1.00   0.00  0.00  0.00  0.97  0.02  0.00  0.00  0.71  0.00
  YS02001920YS02001918    1.00   0.00  0.00  0.00  1.00  0.00  0.00  0.00  0.00  0.00
  YS02001923YS02001920    1.00   0.00  0.00  0.00  1.00  0.00  0.00  0.00  0.90  0.00
  YS02001926YS02001923    1.00   0.00  0.10  0.00  0.16  0.00  0.74  0.00  0.00  0.00
  YS02001929YS02001926    1.00   0.00  0.13  0.00  0.87  0.00  0.00  0.00  0.80  0.00
  YS02006553YS02006556    1.00   0.01  0.00  0.00  0.99  0.00  0.00  0.00  0.03  0.00
  YS02006556YS02006558    1.00   0.00  0.00  0.00  1.00  0.00  0.00  0.00  0.00  0.00
  YS02006558YS02006561    1.00   0.14  0.00  0.00  0.15  0.70  0.00  0.00  0.15  0.00
  YS02006561YS02001783    1.00   0.14  0.00  0.00  0.22  0.63  0.00  0.00  0.66  0.00
  YS02163301YS02001633    1.00   0.00  0.13  0.00  0.87  0.00  0.00  0.00  0.00  0.00
  YS02163601YS02164001    1.00   0.00  0.10  0.00  0.90  0.00  0.00  0.00  0.00  0.00
  YS02164001YS02001641    1.00   0.01  0.10  0.00  0.90  0.00  0.00  0.00  0.05  0.00
  YSB1154YSB6556          1.00   0.13  0.00  0.00  0.87  0.00  0.00  0.00  0.01  0.00
  YSB1171HS02004479       1.00   0.06  0.00  0.00  0.92  0.00  0.00  0.02  0.09  0.00
  YSB1174YSB1171          1.00   0.07  0.03  0.00  0.89  0.00  0.00  0.00  0.00  0.00
  YSB6556YSB1171          1.00   0.06  0.07  0.00  0.87  0.00  0.00  0.00  0.00  0.00
  
  
  *************************
  Conduit Surcharge Summary
  *************************
  
  ----------------------------------------------------------------------------
                                                           Hours        Hours 
                         --------- Hours Full --------   Above Full   Capacity
  Conduit                Both Ends  Upstream  Dnstream   Normal Flow   Limited
  ----------------------------------------------------------------------------
  HS02004478WS02006287        0.81      0.81      1.02      0.01         0.01
  HS02004479HS02004480        1.02      1.02      1.05      0.01         0.01
  HS02004480HS02004478        0.93      1.01      0.93      1.94         0.93
  HS02004770HS02004777        0.90      0.90      0.91      0.13         0.08
  HS02004777HS02004785        0.85      0.85      0.91      0.01         0.01
  HS02004785HS02004788        0.83      0.85      0.83      1.59         0.67
  HS02004788HS02004792        0.83      0.83      0.98      0.01         0.01
  HS02004792HS02004799        0.98      0.98      1.14      0.01         0.01
  HS02004799HS02004480        1.01      1.01      1.14      1.29         0.01
  HS02004802HS02004478        0.95      0.95      1.04      0.31         0.01
  HS02004807HS02004802        1.00      1.00      1.03      0.49         0.51
  HS02004817HS02004807        1.00      1.00      1.63      0.01         0.01
  HS02004817HS02004824        0.83      0.83      1.63      0.01         0.01
  HS02004824HS02004830        0.80      0.80      0.83      0.01         0.01
  HS02004830HS02004837        0.75      0.75      0.80      0.01         0.01
  HS02004837HS02004842        0.75      0.75      0.91      0.01         0.01
  HS02004842HS02004848        0.71      0.71      0.91      0.01         0.01
  HS02004848HS02004852        0.71      0.71      0.74      0.02         0.01
  HS02004852HS02004856        0.74      0.74      0.76      0.02         0.01
  HS02004856HS02004862        0.73      0.73      0.77      0.01         0.01
  HS02004862HS02004870        0.77      0.77      0.79      0.32         0.32
  HS02004870HS02004876        0.79      0.79      0.87      0.01         0.01
  HS02004876HS02004881        0.85      0.87      0.85      1.77         0.85
  HS02004881HS02006253        0.85      0.85      2.17      0.01         0.01
  HS02004901HS02004770        0.90      0.90      0.90      0.23         0.01
  WS02003072WS02003073        0.01      0.01      0.01      2.59         0.01
  WS02004401WS02004402        1.80      1.80      1.83      1.66         1.63
  WS02004402WS02004403        1.83      1.83      1.84      1.80         1.78
  WS02004403WS02004404        1.84      1.84      2.02      0.08         0.11
  WS02004404WS02004405        1.97      2.02      1.97      3.26         1.97
  WS02004405WS02004406        1.94      1.97      1.94      2.26         1.94
  WS02004406WS02004407        0.15      0.15      1.94      0.01         0.01
  WS02004407WS02004409        0.15      0.15      1.44      0.01         0.01
  WS02004409WS02004410        1.39      1.44      1.39      1.71         1.39
  WS02004410WS02004411        1.28      1.39      1.28      1.76         1.28
  WS02004411WS02004412        1.17      1.28      1.17      1.79         1.17
  WS02004412WS02004413        1.17      1.17      1.60      0.01         0.01
  WS02004413WS02003067        0.01      0.01      1.60      0.01         0.01
  WS02006109WS02006110        2.26      2.26      2.54      2.26         0.01
  WS02006110WS02006113        1.58      1.58      2.50      0.32         0.01
  WS02006111WS02006112        1.57      1.57      2.62      0.01         0.01
  WS02006112WS02006115        1.71      1.71      2.28      0.01         0.01
  WS02006113WS02006111        1.58      1.58      1.58      1.65         1.55
  WS02006115WS02006116        1.73      1.73      1.73      1.71         1.69
  WS02006116WS02004401        1.79      1.80      1.80      1.77         1.75
  WS02006228WS02006109        2.44      2.54      2.44      2.87         2.43
  WS02006229WS02006228        2.41      2.48      2.41      2.73         2.41
  WS02006230WS02006229        2.62      2.65      2.62      3.38         1.06
  WS02006231WS02006230        2.06      2.06      2.22      3.05         1.49
  WS02006232WS02006231        2.22      2.22      2.45      0.01         0.21
  WS02006234WS02006232        2.23      2.23      2.45      0.01         0.03
  WS02006235WS02006234        2.21      2.22      2.31      2.75         1.44
  WS02006238WS02006235        2.34      2.34      2.44      0.01         0.24
  WS02006239WS02006238        2.36      2.40      2.37      2.01         0.66
  WS02006240WS02006239        2.30      2.32      2.30      1.99         0.59
  WS02006242WS02006240        2.31      2.31      2.47      2.16         1.21
  WS02006243WS02006242        2.34      2.34      2.43      0.01         0.01
  WS02006245WS02006243        2.33      2.34      2.33      0.78         0.59
  WS02006247WS02006245        2.32      2.37      2.32      2.55         0.82
  WS02006248WS02006247        2.32      2.32      2.35      0.01         0.04
  WS02006249WS02006248        2.30      2.30      2.33      1.02         0.01
  WS02006251WS02006249        2.33      2.35      2.33      2.48         2.25
  WS02006252WS02006251        2.58      2.58      2.59      2.12         0.22
  WS02006253WS02006251        2.34      2.34      2.37      1.17         0.02
  WS02006256WS02006235        2.93      2.98      6.21      0.11         0.14
  WS02006280WS02006229        1.17      1.17      1.35      0.01         0.01
  WS02006284WS02006280        1.05      1.05      1.15      0.01         0.01
  WS02006287WS02006284        0.92      0.92      1.07      0.54         0.54
  YS02001580YS02001583        0.90      0.90      0.93      0.01         0.01
  YS02001583YS02001586        0.91      0.91      1.01      0.01         0.01
  YS02001586YS02001590        1.02      1.02      1.10      0.01         0.01
  YS02001590YS02001593        1.10      1.10      1.13      1.20         0.01
  YS02001593YS02001596        1.12      1.12      1.24      0.01         0.01
  YS02001596YS02001600        1.30      1.30      1.44      0.01         0.01
  YS02001600YS02001601        1.49      1.49      1.71      0.01         0.01
  YS02001601YS02001602        1.63      1.63      1.75      1.47         0.01
  YS02001602YS02001605        1.58      1.58      1.63      2.38         0.01
  YS02001605YS02001607        1.54      1.58      1.54      1.69         1.54
  YS02001607YS02001610        1.02      1.02      1.06      0.01         0.01
  YS02001610YS02001613        1.01      1.01      1.06      0.01         0.01
  YS02001613YS02001616        0.96      0.96      1.01      0.01         0.01
  YS02001616YS02001619        0.95      0.95      0.96      0.17         0.14
  YS02001619YS02001622        0.94      0.95      0.94      1.15         0.92
  YS02001622YS02001625        0.94      0.94      1.17      0.01         0.01
  YS02001625YS02001629        0.84      0.84      1.17      0.01         0.01
  YS02001629YS02163301        1.14      1.14      1.15      0.51         0.42
  YS02001633YS02163601        1.18      1.18      1.22      0.63         0.62
  YS02001641YS02001644        0.99      1.04      0.99      1.76         0.98
  YS02001644YS02001647        0.70      0.70      0.99      0.04         0.01
  YS02001647YS02001649        0.70      0.70      0.79      0.01         0.01
  YS02001649YS02001757        0.78      0.79      0.81      0.53         0.45
  YS02001652YS02001649        0.60      0.60      0.79      0.01         0.01
  YS02001655YS02001652        0.43      0.43      0.58      0.01         0.01
  YS02001658YS02001655        0.33      0.33      0.43      0.01         0.01
  YS02001661YS02001658        0.15      0.15      0.33      0.01         0.01
  YS02001664YS02001661        0.01      0.01      0.20      0.01         0.01
  YS02001745YS02001748        0.01      0.01      0.22      0.01         0.01
  YS02001748YS02001751        0.27      0.27      0.35      0.01         0.01
  YS02001751YS02001754        0.35      0.35      0.44      0.01         0.01
  YS02001754YS02001757        0.47      0.47      0.81      0.01         0.01
  YS02001757CaochengTiaoxuchi        0.38      0.81      0.89      0.68         0.18
  YS02001759YS02001757        0.71      0.71      0.81      0.16         0.17
  YS02001762YS02001759        0.68      0.68      0.71      0.01         0.03
  YS02001765YS02001762        0.63      0.63      0.68      0.01         0.01
  YS02001767YS02001765        0.59      0.59      0.63      0.01         0.06
  YS02001770YS02001767        0.58      0.60      0.59      0.78         0.52
  YS02001774YS02001770        0.57      0.57      0.66      0.01         0.01
  YS02001779YS02001774        0.46      0.46      0.66      0.01         0.01
  YS02001783YS02001784        0.70      0.73      0.70      0.92         0.70
  YS02001784YS02001785        0.58      0.70      0.58      1.22         0.58
  YS02001786YS02001788        0.01      0.58      0.01      1.06         0.01
  YS02001790YS02001791        0.01      0.01      0.01      0.69         0.01
  YS02001882YS02001884        0.66      0.66      0.67      0.01         0.01
  YS02001884YS02001887        0.70      0.70      0.72      0.01         0.01
  YS02001887YS02001890        0.74      0.74      0.75      0.23         0.01
  YS02001890YS02001895        0.65      0.65      0.77      0.01         0.01
  YS02001895YS02001898        0.64      0.64      0.65      0.01         0.01
  YS02001898YS02001901        0.65      0.65      0.70      0.01         0.01
  YS02001901YS02001904        0.69      0.69      0.70      0.01         0.01
  YS02001904YS02001907        0.69      0.69      1.03      0.01         0.01
  YS02001907YS02006553        1.24      1.24      1.32      0.01         0.01
  YS02001910YS02001907        0.77      0.77      1.00      0.10         0.11
  YS02001915YS02001910        0.66      0.66      0.77      0.01         0.01
  YS02001918YS02001915        0.56      0.56      0.66      0.01         0.01
  YS02001920YS02001918        0.56      0.56      0.58      0.01         0.01
  YS02001923YS02001920        0.51      0.51      0.58      0.01         0.01
  YS02001926YS02001923        0.22      0.22      0.27      0.06         0.01
  YS02001929YS02001926        0.12      0.12      0.27      0.01         0.01
  YS02006553YS02006556        0.88      0.88      1.03      0.01         0.01
  YS02006556YS02006558        0.95      0.95      1.05      0.01         0.01
  YS02006558YS02006561        0.60      0.86      0.60      1.17         0.60
  YS02006561YS02001783        0.52      0.52      0.73      0.01         0.01
  YS02163301YS02001633        1.15      1.15      1.21      0.01         0.01
  YS02163601YS02164001        1.06      1.06      1.22      0.34         0.01
  YS02164001YS02001641        1.04      1.06      1.04      1.00         0.79
  YSB1154YSB6556              1.09      1.09      1.32      0.12         0.01
  YSB1171HS02004479           0.97      0.97      1.32      0.01         0.01
  YSB1174YSB1171              1.18      1.18      1.58      0.01         0.01
  YSB6556YSB1171              1.09      1.09      1.69      0.01         0.01
  
  
  ***************
  Pumping Summary
  ***************
  
  ---------------------------------------------------------------------------------------------------------
                                                  Min       Avg       Max     Total     Power    % Time Off
                        Percent   Number of      Flow      Flow      Flow    Volume     Usage    Pump Curve
  Pump                 Utilized   Start-Ups       LPS       LPS       LPS  10^6 ltr     Kw-hr    Low   High
  ---------------------------------------------------------------------------------------------------------
  CC-R1                   31.69           4      0.00    683.00    683.00     6.233    105.06    0.0   65.0
  CC-R2                   31.69           4      0.00    683.00    683.00     6.233    105.06    0.0   65.0
  CC-S1                   31.69           4      0.00    200.00    200.00     1.825     15.24    0.0   27.9
  CC-S2                   31.69           4      0.00    200.00    200.00     1.825     15.24    0.0   27.9
  JK-R1                    8.79         426      0.00    992.78   1000.00     2.495      6.08    0.0    0.0
  JK-R2                    8.79         426      0.00    992.78   1000.00     2.495      6.08    0.0    0.0
  JK-S                     8.79         426      0.00    299.80    300.00     0.758     17.31    0.0    0.0
  XR-1                    97.91           2      0.00     95.00     95.00     2.679      9.63    0.0    0.0
  XR-2                    93.94           2      0.00     95.00     95.00     2.570      8.78    0.0    0.0
  XR-3                     0.00           1      0.00     95.00     95.00     0.000      0.00    0.0    0.0
  XR-4                     0.00           1      0.00     95.00     95.00     0.000      0.00    0.0    0.0
  

  Analysis begun on:  Tue Apr  4 15:26:02 2023
  Analysis ended on:  Tue Apr  4 15:26:21 2023
  Total elapsed time: 00:00:19