
  OWA STORM WATER MANAGEMENT MODEL - VERSION v5.1.14 (OWA 2022-07-31)
  --------------------------------------------------------------

  WARNING 04: minimum elevation drop used for Conduit WS02004404WS02004405
  WARNING 03: negative offset ignored for Link YS02001904YS02001907
  
  *********************************************************
  NOTE: The summary statistics displayed in this report are
  based on results found at every computational time step,  
  not just on results from each reporting time step.
  *********************************************************
  
  ****************
  Analysis Options
  ****************
  Flow Units ............... LPS
  Process Models:
    Rainfall/Runoff ........ YES
    RDII ................... NO
    Snowmelt ............... NO
    Groundwater ............ NO
    Flow Routing ........... YES
    Ponding Allowed ........ NO
    Water Quality .......... NO
  Infiltration Method ...... HORTON
  Flow Routing Method ...... DYNWAVE
  Surcharge Method ......... EXTRAN
  Starting Date ............ 08/28/2015 08:00:00
  Ending Date .............. 08/28/2015 16:00:00
  Antecedent Dry Days ...... 8.0
  Report Time Step ......... 00:01:00
  Wet Time Step ............ 00:01:00
  Dry Time Step ............ 00:01:00
  Routing Time Step ........ 30.00 sec
  Variable Time Step ....... YES
  Maximum Trials ........... 8
  Number of Threads ........ 4
  Head Tolerance ........... 0.001500 m
  
  
  **************************        Volume         Depth
  Runoff Quantity Continuity     hectare-m            mm
  **************************     ---------       -------
  Initial LID Storage ......         0.072         1.184
  Total Precipitation ......         5.410        89.304
  Evaporation Loss .........         0.000         0.000
  Infiltration Loss ........         0.215         3.547
  Surface Runoff ...........         4.263        70.377
  Final Storage ............         1.005        16.595
  Continuity Error (%) .....        -0.035
  
  
  **************************        Volume        Volume
  Flow Routing Continuity        hectare-m      10^6 ltr
  **************************     ---------     ---------
  Dry Weather Inflow .......         0.630         6.296
  Wet Weather Inflow .......         4.263        42.630
  Groundwater Inflow .......         0.000         0.000
  RDII Inflow ..............         0.000         0.000
  External Inflow ..........         0.105         1.045
  External Outflow .........         2.967        29.672
  Flooding Loss ............         2.209        22.087
  Evaporation Loss .........         0.000         0.000
  Exfiltration Loss ........         0.000         0.000
  Initial Stored Volume ....         0.303         3.031
  Final Stored Volume ......         0.190         1.897
  Continuity Error (%) .....        -1.235
  
  
  *************************
  Highest Continuity Errors
  *************************
  Node YS02001583 (-15.00%)
  Node JK-storage (-14.66%)
  Node YS02001884 (5.29%)
  Node WS02006256 (2.49%)
  Node HS02004842 (1.34%)
  
  
  ***************************
  Time-Step Critical Elements
  ***************************
  Link WS02006280WS02006229 (44.10%)
  Link YS02001793JiankangQianchi (25.46%)
  Link WS02006238WS02006235 (9.47%)
  Link WS02003066WSF200 (4.51%)
  Link WS02006252WS02006251 (1.84%)
  
  
  ********************************
  Highest Flow Instability Indexes
  ********************************
  Link WS02004404WS02004405 (35)
  Link WS02006113WS02006111 (34)
  Link WS02006229WS02006228 (31)
  Link WS02004403WS02004404 (31)
  Link WS02006256WS02006235 (30)
  
  
  *************************
  Routing Time Step Summary
  *************************
  Minimum Time Step           :     0.00 sec
  Average Time Step           :     2.46 sec
  Maximum Time Step           :     6.46 sec
  Percent in Steady State     :     0.00
  Average Iterations per Step :     4.58
  Percent Not Converging      :    32.88
  
  
  ***************************
  Subcatchment Runoff Summary
  ***************************
  
  ------------------------------------------------------------------------------------------------------------------------------
                            Total      Total      Total      Total     Imperv       Perv      Total       Total     Peak  Runoff
                           Precip      Runon       Evap      Infil     Runoff     Runoff     Runoff      Runoff   Runoff   Coeff
  Subcatchment                 mm         mm         mm         mm         mm         mm         mm    10^6 ltr      LPS
  ------------------------------------------------------------------------------------------------------------------------------
  sub0                      99.00       0.00       0.00       1.04      90.84       5.89      96.73        0.08    55.97   0.977
  sub1                      99.00       0.00       0.00       1.61      77.87       8.16      86.02        0.57   369.55   0.869
  sub10                     99.00       0.00       0.00       1.01      72.97       5.42      78.39        0.86   569.27   0.792
  sub11                     99.00       0.00       0.00       0.92      67.81       5.06      72.86        0.85   574.68   0.736
  sub12                     99.00       0.00       0.00       1.62      68.93       8.82      77.76        0.68   482.36   0.785
  sub14                     99.00       0.00       0.00       1.01      64.22       5.44      69.65        0.66   446.70   0.704
  sub15                     99.00       0.00       0.00       4.69      57.74      20.40      78.14        1.34   860.47   0.789
  sub16                     99.00       0.00       0.00       4.95      56.31      23.17      79.48        0.83   559.89   0.803
  sub17                     99.00       0.00       0.00       5.31      62.15      24.34      86.49        0.74   492.74   0.874
  sub2                      99.00       0.00       0.00       7.49      56.93      26.43      83.35        0.78   439.94   0.842
  sub22                     99.00       0.00       0.00       8.37      53.89      32.86      86.75        5.48  3352.20   0.876
  sub23                     99.00       0.00       0.00       6.26      55.50      26.79      82.28        3.92  2520.03   0.831
  sub3                      99.00       0.00       0.00       8.06      56.39      25.56      81.95        1.84   967.86   0.828
  sub4                      99.00       0.00       0.00       1.78      76.75       7.86      84.61        1.76   980.09   0.855
  sub5                      99.00       0.00       0.00       0.90      75.33       4.85      80.17        0.91   591.05   0.810
  sub60                     81.29       0.00       0.00       1.41      54.30       6.13      60.42        0.79   516.82   0.743
  sub61                     81.29       0.00       0.00       2.16      54.25       9.15      63.40        1.16   744.90   0.780
  sub62                     81.29       0.00       0.00       0.96      57.84       4.16      62.00        1.70  1017.93   0.763
  sub63                     81.29       0.00       0.00       3.91      46.46      15.39      61.85        1.40   810.56   0.761
  sub64                     81.29       0.00       0.00       1.88      52.91       7.62      60.53        1.45   809.80   0.745
  sub65                     81.29       0.00       0.00       1.73      57.11       6.96      64.07        1.76   943.68   0.788
  sub66                     81.29       0.00       0.00       4.50      44.94      14.20      59.14        2.76  1183.33   0.728
  sub67                     81.29       0.00       0.00       0.95      59.29       4.30      63.58        1.18   811.29   0.782
  sub68                     81.29       0.00       0.00       1.65      52.36       7.02      59.38        1.63  1010.59   0.731
  sub69                     81.29       0.00       0.00       1.50      54.69       8.16      62.85        2.33  1236.13   0.773
  sub7                      99.00       0.00       0.00       1.07      68.83       5.84      74.67        0.25   172.92   0.754
  sub70                     81.29       0.00       0.00       4.94      43.82      17.69      61.51        1.78   687.01   0.757
  sub71                     81.29       0.00       0.00       0.88      52.54       3.77      56.31        1.47   826.58   0.693
  sub72                     81.29       0.00       0.00       0.84      56.76       3.51      60.28        0.83   418.27   0.741
  sub8                      99.00       0.00       0.00       1.05      66.89       5.66      72.55        0.46   313.09   0.733
  sub9                      99.00       0.00       0.00       1.01      64.85       5.49      70.34        0.34   228.30   0.710
  

  ***********************
  LID Performance Summary
  ***********************

  --------------------------------------------------------------------------------------------------------------------
                                         Total      Evap     Infil   Surface    Drain    Initial     Final  Continuity
                                        Inflow      Loss      Loss   Outflow   Outflow   Storage   Storage       Error
  Subcatchment      LID Control             mm        mm        mm        mm        mm        mm        mm           %
  --------------------------------------------------------------------------------------------------------------------
  sub1              GreenRoof            99.00      0.00      0.00      0.00      0.00      7.05    106.13       -0.08
  sub10             GreenRoof            99.00      0.00      0.00      0.00      0.00      7.05    106.13       -0.08
  sub11             GreenRoof            99.00      0.00      0.00      0.00      0.00      7.05    106.13       -0.08
  sub12             GreenRoof            99.00      0.00      0.00      0.00      0.00      7.05    106.13       -0.08
  sub14             GreenRoof            99.00      0.00      0.00      0.00      0.00      7.05    106.13       -0.08
  sub15             GreenRoof            99.00      0.00      0.00      0.00      0.00      7.05    106.13       -0.08
  sub16             GreenRoof            99.00      0.00      0.00      0.00      0.00      7.05    106.13       -0.08
  sub17             GreenRoof            99.00      0.00      0.00      0.00      0.00      7.05    106.13       -0.08
  sub2              GreenRoof            99.00      0.00      0.00      0.00      0.00      7.05    106.13       -0.08
  sub22             GreenRoof            99.00      0.00      0.00      0.00      0.00      7.05    106.13       -0.08
  sub23             GreenRoof            99.00      0.00      0.00      0.00      0.00      7.05    106.13       -0.08
  sub3              GreenRoof            99.00      0.00      0.00      0.00      0.00      7.05    106.13       -0.08
  sub4              GreenRoof            99.00      0.00      0.00      0.00      0.00      7.05    106.13       -0.08
  sub5              GreenRoof            99.00      0.00      0.00      0.00      0.00      7.05    106.13       -0.08
  sub60             GreenRoof            81.29      0.00      0.00      0.00      0.00      7.05     88.38       -0.05
  sub61             GreenRoof            81.29      0.00      0.00      0.00      0.00      7.05     88.38       -0.05
  sub62             GreenRoof            81.29      0.00      0.00      0.00      0.00      7.05     88.38       -0.05
  sub63             GreenRoof            81.29      0.00      0.00      0.00      0.00      7.05     88.38       -0.05
  sub64             GreenRoof            81.29      0.00      0.00      0.00      0.00      7.05     88.38       -0.05
  sub65             GreenRoof            81.29      0.00      0.00      0.00      0.00      7.05     88.38       -0.05
  sub66             GreenRoof            81.29      0.00      0.00      0.00      0.00      7.05     88.38       -0.05
  sub67             GreenRoof            81.29      0.00      0.00      0.00      0.00      7.05     88.38       -0.05
  sub68             GreenRoof            81.29      0.00      0.00      0.00      0.00      7.05     88.38       -0.05
  sub69             GreenRoof            81.29      0.00      0.00      0.00      0.00      7.05     88.38       -0.05
  sub7              GreenRoof            99.00      0.00      0.00      0.00      0.00      7.05    106.13       -0.08
  sub70             GreenRoof            81.29      0.00      0.00      0.00      0.00      7.05     88.38       -0.05
  sub71             GreenRoof            81.29      0.00      0.00      0.00      0.00      7.05     88.38       -0.05
  sub72             GreenRoof            81.29      0.00      0.00      0.00      0.00      7.05     88.38       -0.05
  sub8              GreenRoof            99.00      0.00      0.00      0.00      0.00      7.05    106.13       -0.08
  sub9              GreenRoof            99.00      0.00      0.00      0.00      0.00      7.05    106.13       -0.08
  
  ******************
  Node Depth Summary
  ******************
  
  ---------------------------------------------------------------------------------
                                 Average  Maximum  Maximum  Time of Max    Reported
                                   Depth    Depth      HGL   Occurrence   Max Depth
  Node                 Type       Meters   Meters   Meters  days hr:min      Meters
  ---------------------------------------------------------------------------------
  HS02004478           JUNCTION     0.30     1.59    10.81     0  02:31        1.58
  HS02004479           JUNCTION     0.39     1.67    10.88     0  02:41        1.67
  HS02004480           JUNCTION     0.35     1.64    10.88     0  02:17        1.64
  HS02004770           JUNCTION     0.34     1.42    11.25     0  02:13        1.42
  HS02004777           JUNCTION     0.37     1.48    11.28     0  02:13        1.47
  HS02004785           JUNCTION     0.26     1.49    11.39     0  02:13        1.38
  HS02004788           JUNCTION     0.22     1.41    11.30     0  02:13        1.38
  HS02004792           JUNCTION     0.30     1.60    11.12     0  02:12        1.60
  HS02004799           JUNCTION     0.42     1.76    10.97     0  02:12        1.76
  HS02004802           JUNCTION     0.40     1.80    10.93     0  02:38        1.80
  HS02004807           JUNCTION     0.38     1.92    11.09     0  02:30        1.92
  HS02004817           JUNCTION     0.68     2.42    11.26     0  02:41        2.42
  HS02004824           JUNCTION     0.25     2.01    11.41     0  02:32        2.01
  HS02004830           JUNCTION     0.24     2.00    11.46     0  02:35        2.00
  HS02004837           JUNCTION     0.21     1.93    11.51     0  02:35        1.93
  HS02004842           JUNCTION     0.49     2.22    11.49     0  02:32        2.22
  HS02004848           JUNCTION     0.19     1.93    11.53     0  02:35        1.93
  HS02004852           JUNCTION     0.20     2.12    11.63     0  02:17        1.98
  HS02004856           JUNCTION     0.25     2.05    11.48     0  02:16        2.04
  HS02004862           JUNCTION     0.21     2.00    11.38     0  02:32        2.00
  HS02004870           JUNCTION     0.20     2.04    11.32     0  02:36        2.04
  HS02004876           JUNCTION     0.26     2.15    11.18     0  02:36        2.15
  HS02004881           JUNCTION     0.18     1.90    10.93     0  02:36        1.90
  HS02004901           JUNCTION     0.35     1.42    11.24     0  02:13        1.42
  WS02001211           JUNCTION     0.64     0.83     5.67     0  02:39        0.83
  WS02001212           JUNCTION     0.39     0.59     5.66     0  02:39        0.59
  WS02001213           JUNCTION     0.61     0.89     5.65     0  02:37        0.89
  WS02003059           JUNCTION     0.67     0.96     5.65     0  02:37        0.96
  WS02003060           JUNCTION     0.40     0.71     5.64     0  02:37        0.71
  WS02003066           JUNCTION     0.24     0.47     6.02     0  02:36        0.47
  WS02003067           JUNCTION     0.56     0.90     6.22     0  02:36        0.90
  WS02003069           JUNCTION     0.45     0.80     5.38     0  02:37        0.80
  WS02003072           JUNCTION     0.50     0.83     5.20     0  02:38        0.83
  WS02003073           JUNCTION     0.30     0.53     4.59     0  02:39        0.53
  WS02004138           JUNCTION     0.13     0.14     7.39     0  00:32        0.14
  WS02004139           JUNCTION     0.58     0.76     5.67     0  02:39        0.76
  WS02004401           JUNCTION     0.85     2.07     8.07     0  02:36        2.06
  WS02004402           JUNCTION     0.86     2.00     7.96     0  02:36        1.99
  WS02004403           JUNCTION     0.86     2.10     8.03     0  02:12        2.10
  WS02004404           JUNCTION     0.91     1.96     7.81     0  02:12        1.96
  WS02004405           JUNCTION     0.90     2.03     7.88     0  02:12        2.03
  WS02004406           JUNCTION     0.88     1.73     7.56     0  02:36        1.72
  WS02004407           JUNCTION     0.31     1.06     7.37     0  02:36        1.05
  WS02004409           JUNCTION     0.59     1.47     7.24     0  02:36        1.47
  WS02004410           JUNCTION     0.59     1.37     7.09     0  02:36        1.35
  WS02004411           JUNCTION     0.59     1.26     6.94     0  02:36        1.26
  WS02004412           JUNCTION     0.58     1.14     6.78     0  02:37        1.14
  WS02004413           JUNCTION     0.71     1.17     6.64     0  02:35        1.17
  WS02006109           JUNCTION     1.13     2.64     9.26     0  02:13        2.64
  WS02006110           JUNCTION     1.05     2.46     9.05     0  02:36        2.46
  WS02006111           JUNCTION     0.54     1.94     8.65     0  02:35        1.94
  WS02006112           JUNCTION     1.10     2.63     8.51     0  02:36        2.63
  WS02006113           JUNCTION     0.61     1.96     8.85     0  02:36        1.96
  WS02006115           JUNCTION     0.79     2.19     8.33     0  02:36        2.19
  WS02006116           JUNCTION     0.85     2.17     8.21     0  02:36        2.17
  WS02006228           JUNCTION     1.21     3.03     9.68     0  02:31        3.02
  WS02006229           JUNCTION     1.24     3.22     9.92     0  02:34        3.22
  WS02006230           JUNCTION     1.14     2.65     9.39     0  02:04        2.65
  WS02006231           JUNCTION     0.84     2.22     9.34     0  02:04        2.22
  WS02006232           JUNCTION     0.92     2.18     9.22     0  01:32        2.18
  WS02006234           JUNCTION     0.80     1.96     9.12     0  01:29        1.96
  WS02006235           JUNCTION     0.80     2.00     9.16     0  01:28        2.00
  WS02006238           JUNCTION     0.82     2.15     9.29     0  01:32        2.15
  WS02006239           JUNCTION     0.75     2.03     9.24     0  01:32        2.03
  WS02006240           JUNCTION     0.69     2.10     9.39     0  01:28        2.10
  WS02006242           JUNCTION     0.72     1.55     8.82     0  01:28        1.55
  WS02006243           JUNCTION     0.61     1.48     8.90     0  01:28        1.48
  WS02006245           JUNCTION     0.58     1.56     9.04     0  02:12        1.56
  WS02006247           JUNCTION     0.58     1.43     8.93     0  03:18        1.34
  WS02006248           JUNCTION     0.52     1.10     8.69     0  01:28        1.10
  WS02006249           JUNCTION     0.54     1.09     8.69     0  01:28        1.09
  WS02006251           JUNCTION     0.69     2.17     9.84     0  02:36        2.17
  WS02006252           JUNCTION     0.47     1.50     9.74     0  00:00        1.50
  WS02006253           JUNCTION     0.79     3.17    10.81     0  02:36        3.17
  WS02006256           JUNCTION     1.07     2.35     9.28     0  00:00        2.35
  WS02006280           JUNCTION     0.39     1.74    10.01     0  02:33        1.74
  WS02006284           JUNCTION     0.64     1.95    10.35     0  02:41        1.95
  WS02006287           JUNCTION     0.38     1.74    10.69     0  02:30        1.73
  WSF200               JUNCTION     0.24     0.54     5.77     0  02:36        0.54
  YS02001580           JUNCTION     0.15     1.05     9.59     0  01:24        0.77
  YS02001583           JUNCTION     0.18     1.14     9.64     0  01:24        0.83
  YS02001586           JUNCTION     0.28     1.13     9.30     0  01:24        1.13
  YS02001590           JUNCTION     0.38     1.40     9.26     0  01:23        1.38
  YS02001593           JUNCTION     0.32     1.46     9.32     0  01:23        1.29
  YS02001596           JUNCTION     0.42     1.75     9.17     0  01:24        1.66
  YS02001600           JUNCTION     0.51     1.87     9.00     0  01:23        1.86
  YS02001601           JUNCTION     0.69     2.06     8.90     0  01:23        2.06
  YS02001602           JUNCTION     0.59     1.87     8.77     0  01:25        1.87
  YS02001605           JUNCTION     0.54     1.78     8.68     0  01:25        1.78
  YS02001607           JUNCTION     0.51     1.68     8.53     0  01:25        1.65
  YS02001610           JUNCTION     0.55     1.68     8.48     0  01:25        1.68
  YS02001613           JUNCTION     0.51     1.70     8.54     0  01:25        1.68
  YS02001616           JUNCTION     0.44     1.61     8.52     0  01:25        1.61
  YS02001619           JUNCTION     0.42     1.61     8.54     0  01:25        1.61
  YS02001622           JUNCTION     0.41     1.62     8.52     0  01:25        1.62
  YS02001625           JUNCTION     0.65     1.78     8.38     0  01:25        1.78
  YS02001629           JUNCTION     0.54     1.85     8.40     0  01:24        1.85
  YS02001633           JUNCTION     0.61     2.08     8.53     0  01:27        2.08
  YS02001641           JUNCTION     0.57     1.99     8.42     0  01:25        1.97
  YS02001644           JUNCTION     0.56     1.92     8.35     0  01:25        1.92
  YS02001647           JUNCTION     0.34     1.84     8.45     0  01:26        1.76
  YS02001649           JUNCTION     0.37     2.05     8.44     0  01:26        2.05
  YS02001652           JUNCTION     0.26     2.14     8.74     0  01:26        1.77
  YS02001655           JUNCTION     0.19     2.20     9.05     0  01:25        1.54
  YS02001658           JUNCTION     0.14     2.30     9.44     0  01:26        1.28
  YS02001661           JUNCTION     0.16     1.94     9.34     0  01:26        1.08
  YS02001664           JUNCTION     0.07     0.98     8.91     0  01:27        0.55
  YS02001745           JUNCTION     0.08     2.35     9.87     0  01:26        1.19
  YS02001748           JUNCTION     0.12     2.27     9.35     0  01:26        1.32
  YS02001751           JUNCTION     0.14     2.20     9.08     0  01:26        1.55
  YS02001754           JUNCTION     0.20     2.20     8.81     0  01:26        2.08
  YS02001757           JUNCTION     0.37     2.21     8.47     0  01:26        2.21
  YS02001759           JUNCTION     0.31     2.20     8.57     0  01:26        2.13
  YS02001762           JUNCTION     0.31     2.15     8.55     0  01:26        2.05
  YS02001765           JUNCTION     0.28     2.10     8.55     0  01:26        1.99
  YS02001767           JUNCTION     0.28     2.03     8.52     0  01:26        1.95
  YS02001770           JUNCTION     0.30     1.95     8.44     0  01:26        1.95
  YS02001774           JUNCTION     0.36     2.05     8.47     0  01:26        1.99
  YS02001779           JUNCTION     0.19     1.68     8.37     0  01:26        1.68
  YS02001783           JUNCTION     0.31     1.39     7.53     0  01:25        1.23
  YS02001784           JUNCTION     0.31     1.32     7.39     0  01:25        1.10
  YS02001786           JUNCTION     0.26     1.40     7.43     0  01:25        0.88
  YS02001788           JUNCTION     0.19     0.64     6.62     0  01:25        0.64
  YS02001790           JUNCTION     0.22     0.72     6.37     0  01:31        0.71
  YS02001791           JUNCTION     0.14     0.44     5.91     0  01:30        0.43
  YS02001793           JUNCTION     0.08     0.26     5.09     0  01:29        0.25
  YS02001882           JUNCTION     0.38     1.83     8.55     0  01:25        1.83
  YS02001884           JUNCTION     0.47     1.92     8.53     0  01:25        1.74
  YS02001887           JUNCTION     0.54     1.88     8.42     0  01:25        1.82
  YS02001890           JUNCTION     0.57     1.81     8.32     0  01:25        1.81
  YS02001895           JUNCTION     0.35     1.74     8.49     0  01:25        1.58
  YS02001898           JUNCTION     0.36     1.77     8.51     0  01:25        1.57
  YS02001901           JUNCTION     0.47     1.78     8.39     0  01:25        1.68
  YS02001904           JUNCTION     0.45     1.69     8.32     0  01:25        1.64
  YS02001907           JUNCTION     0.75     1.96     8.25     0  01:25        1.96
  YS02001910           JUNCTION     0.56     2.10     8.61     0  01:25        1.92
  YS02001915           JUNCTION     0.39     2.00     8.72     0  01:25        1.86
  YS02001918           JUNCTION     0.23     1.81     8.88     0  01:25        1.66
  YS02001920           JUNCTION     0.30     2.14     9.15     0  01:25        1.58
  YS02001923           JUNCTION     0.18     2.03     9.29     0  01:25        1.32
  YS02001926           JUNCTION     0.20     1.90     9.35     0  01:26        1.17
  YS02001929           JUNCTION     0.12     1.78     9.47     0  01:26        0.96
  YS02006553           JUNCTION     0.75     1.98     8.26     0  01:25        1.97
  YS02006556           JUNCTION     0.72     1.96     8.27     0  01:25        1.95
  YS02006558           JUNCTION     0.77     2.01     8.28     0  01:27        2.01
  YS02006561           JUNCTION     0.19     1.01     7.67     0  01:25        0.89
  YS02163301           JUNCTION     0.56     1.94     8.46     0  01:25        1.94
  YS02163601           JUNCTION     0.64     2.08     8.48     0  01:25        2.08
  YS02164001           JUNCTION     0.56     2.01     8.47     0  01:25        1.98
  YSB1154              JUNCTION     0.52     2.04    11.10     0  02:36        2.04
  YSB1171              JUNCTION     0.66     1.95    10.85     0  02:17        1.95
  YSB1174              JUNCTION     0.47     1.85    10.96     0  02:36        1.85
  YSB6556              JUNCTION     0.42     1.80    10.96     0  02:36        1.80
  CC-1                 OUTFALL      0.00     0.00     0.00     0  00:00        0.00
  CC-2                 OUTFALL      0.00     0.00     0.00     0  00:00        0.00
  JK-1                 OUTFALL      0.00     0.00     0.00     0  00:00        0.00
  JK-2                 OUTFALL      0.00     0.00     0.00     0  00:00        0.00
  WSC                  OUTFALL      0.30     0.53     1.20     0  02:39        0.53
  CC-storage           STORAGE      0.28     0.95     6.45     0  02:08        0.95
  JK-storage           STORAGE      0.05     2.99     3.79     0  00:00        0.68
  XR-storage           STORAGE      7.77     9.26     7.26     0  08:00        9.26
  
  
  *******************
  Node Inflow Summary
  *******************
  
  -------------------------------------------------------------------------------------------------
                                  Maximum  Maximum                  Lateral       Total        Flow
                                  Lateral    Total  Time of Max      Inflow      Inflow     Balance
                                   Inflow   Inflow   Occurrence      Volume      Volume       Error
  Node                 Type           LPS      LPS  days hr:min    10^6 ltr    10^6 ltr     Percent
  -------------------------------------------------------------------------------------------------
  HS02004478           JUNCTION      0.00  2303.66     0  02:31           0        10.6      -0.009
  HS02004479           JUNCTION      0.00   371.05     0  02:22           0        1.01       0.059
  HS02004480           JUNCTION      0.00  2005.11     0  02:17           0        7.87       0.021
  HS02004770           JUNCTION   2520.03  2520.03     0  02:37        3.93        4.18       0.065
  HS02004777           JUNCTION      0.03   679.23     0  02:14    0.000864        2.19       0.236
  HS02004785           JUNCTION      0.15   678.99     0  02:14     0.00432        2.19       0.009
  HS02004788           JUNCTION    862.14   926.25     0  02:36        1.39        3.58       0.010
  HS02004792           JUNCTION   3352.48  4264.27     0  02:37        5.49        9.07       0.002
  HS02004799           JUNCTION    446.70  1727.55     0  02:16       0.663        7.19       0.039
  HS02004802           JUNCTION      0.00  1233.12     0  02:37           0        2.95       0.129
  HS02004807           JUNCTION    574.68  1771.38     0  02:36       0.847        3.22       0.127
  HS02004817           JUNCTION      0.60  1197.07     0  02:38      0.0173        2.43       0.685
  HS02004824           JUNCTION    980.14  1573.50     0  02:37        1.77        2.76       0.021
  HS02004830           JUNCTION      0.15   599.49     0  02:36     0.00432        1.22       0.098
  HS02004837           JUNCTION    575.62   644.56     0  02:17        1.05        1.56       0.058
  HS02004842           JUNCTION      0.00   659.57     0  02:17           0       0.963       1.359
  HS02004848           JUNCTION    967.86   967.86     0  02:37        1.84        2.46       0.020
  HS02004852           JUNCTION      0.00   858.34     0  02:17           0        2.13      -0.000
  HS02004856           JUNCTION    228.30   892.04     0  02:16       0.338        2.47       0.055
  HS02004862           JUNCTION    440.14  1203.55     0  02:37       0.783        3.25       0.003
  HS02004870           JUNCTION    313.09  1256.71     0  02:40       0.464        3.63       0.010
  HS02004876           JUNCTION    369.55  1522.83     0  02:39       0.572         4.2       0.010
  HS02004881           JUNCTION    172.92  1673.20     0  02:36       0.252        4.45       0.003
  HS02004901           JUNCTION    559.89   825.68     0  02:37       0.832        1.34       0.116
  WS02001211           JUNCTION      7.35   210.52     0  03:10       0.212        5.44       0.611
  WS02001212           JUNCTION      0.00   222.85     0  03:10           0        5.41       0.273
  WS02001213           JUNCTION      0.00   231.38     0  03:10           0        5.39       0.347
  WS02003059           JUNCTION      0.00   240.89     0  03:09           0        5.38       0.596
  WS02003060           JUNCTION     16.53  1578.65     0  02:36       0.476          15       0.097
  WS02003066           JUNCTION      0.00  1378.77     0  02:36           0        9.21       0.017
  WS02003067           JUNCTION      0.00  1376.41     0  02:36           0        9.21       0.047
  WS02003069           JUNCTION      0.32  1573.67     0  02:37     0.00922          15       0.103
  WS02003072           JUNCTION      0.00  1572.07     0  02:38           0          15       0.139
  WS02003073           JUNCTION      1.82  1574.28     0  02:38      0.0524          15       0.143
  WS02004138           JUNCTION      0.00   380.00     0  00:00           0        5.25       0.053
  WS02004139           JUNCTION      0.32   190.32     0  00:32     0.00924        5.26       0.508
  WS02004401           JUNCTION      0.00  1374.82     0  02:37           0        9.32       0.114
  WS02004402           JUNCTION      0.00  1374.66     0  02:36           0        9.31       0.114
  WS02004403           JUNCTION      0.00  1374.92     0  02:36           0         9.3       0.112
  WS02004404           JUNCTION      0.16  1375.03     0  02:37     0.00467        9.29       0.094
  WS02004405           JUNCTION      0.04  1376.46     0  02:37      0.0011        9.28       0.135
  WS02004406           JUNCTION      0.00  1375.86     0  02:37           0        9.27       0.231
  WS02004407           JUNCTION      0.00  1375.90     0  02:37           0        9.25       0.015
  WS02004409           JUNCTION      0.00  1375.01     0  02:36           0        9.25       0.033
  WS02004410           JUNCTION      0.00  1375.54     0  02:36           0        9.24       0.053
  WS02004411           JUNCTION      0.00  1375.70     0  02:36           0        9.24       0.065
  WS02004412           JUNCTION      0.00  1375.65     0  02:36           0        9.23       0.085
  WS02004413           JUNCTION      0.00  1376.09     0  02:36           0        9.22       0.155
  WS02006109           JUNCTION      1.23  1288.64     0  02:31      0.0354        9.05       0.102
  WS02006110           JUNCTION      0.00  1124.75     0  02:51           0        8.61       0.087
  WS02006111           JUNCTION      0.00  1125.56     0  02:51           0         8.6       0.013
  WS02006112           JUNCTION    492.74  1374.93     0  02:36       0.742        9.34       0.220
  WS02006113           JUNCTION      0.00  1125.13     0  02:51           0        8.61       0.024
  WS02006115           JUNCTION      0.00  1375.10     0  02:36           0        9.32       0.082
  WS02006116           JUNCTION      0.00  1375.13     0  02:36           0        9.32       0.001
  WS02006228           JUNCTION      0.00  1289.18     0  02:31           0        9.02       0.047
  WS02006229           JUNCTION      0.00  2303.91     0  02:31           0        12.2       0.069
  WS02006230           JUNCTION     10.28  1025.63     0  02:31       0.296        4.76       0.154
  WS02006231           JUNCTION      0.00   478.74     0  02:51           0        3.18      -0.041
  WS02006232           JUNCTION      0.00   476.47     0  02:51           0        3.17       0.174
  WS02006234           JUNCTION      0.00   468.78     0  02:51           0        3.16      -0.134
  WS02006235           JUNCTION      0.00   451.96     0  01:28           0        3.05       0.227
  WS02006238           JUNCTION      0.00   413.65     0  02:51           0        2.89      -0.109
  WS02006239           JUNCTION      0.00   404.86     0  02:26           0        2.84      -0.113
  WS02006240           JUNCTION      0.00   405.01     0  02:06           0        2.83      -0.025
  WS02006242           JUNCTION      0.00   413.01     0  01:28           0        2.84      -0.018
  WS02006243           JUNCTION      0.00   445.10     0  01:28           0        2.37      -0.233
  WS02006245           JUNCTION      0.00   468.42     0  01:28           0        2.38       0.487
  WS02006247           JUNCTION      0.00   470.88     0  01:28           0        2.38      -0.027
  WS02006248           JUNCTION      0.00   486.74     0  01:27           0         2.7      -0.029
  WS02006249           JUNCTION      0.00  1384.43     0  02:36           0         6.7       0.095
  WS02006251           JUNCTION      0.08  1730.00     0  02:36     0.00222        6.97      -0.019
  WS02006252           JUNCTION      0.00   746.85     0  02:36           0        3.29      -0.060
  WS02006253           JUNCTION     55.97  1729.63     0  02:36      0.0784        4.57       0.023
  WS02006256           JUNCTION      0.00   300.00     0  00:00           0       0.649       2.559
  WS02006280           JUNCTION      0.00  2303.54     0  02:31           0        10.6      -0.004
  WS02006284           JUNCTION      0.10  2302.93     0  02:31     0.00275        10.6       0.006
  WS02006287           JUNCTION      0.00  2303.84     0  02:31           0        10.6       0.006
  WSF200               JUNCTION      0.00  1379.42     0  02:36           0         9.2       0.006
  YS02001580           JUNCTION      0.00   331.06     0  01:24           0      0.0052      -9.786
  YS02001583           JUNCTION      0.00   319.74     0  01:24           0      0.0154     -13.041
  YS02001586           JUNCTION    687.01   687.04     0  01:31        1.78        1.79       0.104
  YS02001590           JUNCTION      0.00   317.92     0  01:29           0        1.39      -0.064
  YS02001593           JUNCTION      0.00   317.91     0  01:28           0        1.39       0.033
  YS02001596           JUNCTION      0.00   317.90     0  01:44           0        1.39       0.013
  YS02001600           JUNCTION      0.00   317.90     0  01:55           0        1.39       0.018
  YS02001601           JUNCTION   1236.13  1553.73     0  01:29        2.33        3.72       0.028
  YS02001602           JUNCTION      0.00   602.69     0  01:24           0        2.38       0.020
  YS02001605           JUNCTION      0.00   602.86     0  01:24           0        2.28       0.021
  YS02001607           JUNCTION      0.00   602.56     0  01:24           0        2.28       0.044
  YS02001610           JUNCTION      0.00   633.75     0  01:31           0        2.48       0.089
  YS02001613           JUNCTION      0.00   534.58     0  01:24           0        2.03       0.040
  YS02001616           JUNCTION      0.00   618.81     0  01:25           0        2.04      -0.022
  YS02001619           JUNCTION   1183.33  1183.33     0  01:31        2.76        4.59      -0.012
  YS02001622           JUNCTION      0.00   986.50     0  01:24           0        4.38      -0.012
  YS02001625           JUNCTION      0.00  1251.84     0  01:31           0        4.52       0.214
  YS02001629           JUNCTION      0.00   956.99     0  01:51           0        3.82      -0.005
  YS02001633           JUNCTION    943.88  1297.63     0  01:50        1.77        5.41       0.066
  YS02001641           JUNCTION      0.00  1298.86     0  01:50           0        5.24       0.054
  YS02001644           JUNCTION    809.84  1919.10     0  01:25        1.45        6.69       0.047
  YS02001647           JUNCTION      0.00  1918.95     0  01:25           0        6.45       0.008
  YS02001649           JUNCTION      0.00  2177.94     0  01:25           0        7.86       0.008
  YS02001652           JUNCTION      0.00  1011.35     0  01:27           0        1.41      -0.242
  YS02001655           JUNCTION      0.15  1010.52     0  01:27     0.00443        1.41       0.062
  YS02001658           JUNCTION      0.00  1009.72     0  01:27           0         1.4      -0.076
  YS02001661           JUNCTION      0.00  1008.04     0  01:27           0         1.4       0.014
  YS02001664           JUNCTION    810.56   810.56     0  01:28         1.4         1.4      -0.018
  YS02001745           JUNCTION    516.82   754.31     0  01:26       0.794       0.796       0.128
  YS02001748           JUNCTION      0.04   831.74     0  01:26      0.0013         0.8      -0.433
  YS02001751           JUNCTION      0.01   848.22     0  01:26    0.000317        0.81       0.237
  YS02001754           JUNCTION      0.26   626.01     0  01:25     0.00749       0.822      -0.332
  YS02001757           JUNCTION      0.00  3355.40     0  01:33           0        11.4       0.041
  YS02001759           JUNCTION    744.94  1406.14     0  01:26        1.16        2.75      -0.003
  YS02001762           JUNCTION      0.00   796.92     0  01:33           0        1.59      -0.014
  YS02001765           JUNCTION      0.00   797.11     0  01:33           0        1.59      -0.016
  YS02001767           JUNCTION      0.54   796.38     0  01:33      0.0154        1.59      -0.024
  YS02001770           JUNCTION   1018.09  1018.09     0  01:28         1.7        1.75      -0.030
  YS02001774           JUNCTION      0.00   832.49     0  01:26           0       0.192       0.429
  YS02001779           JUNCTION      0.01   845.38     0  01:26    0.000144       0.148      -0.767
  YS02001783           JUNCTION      0.00  1163.24     0  01:26           0        4.05       0.007
  YS02001784           JUNCTION      1.06  1164.73     0  01:26      0.0305        4.08       0.013
  YS02001786           JUNCTION      0.06  1164.51     0  01:26     0.00162        4.08       0.017
  YS02001788           JUNCTION      0.07  1164.88     0  01:26     0.00204        4.08       0.006
  YS02001790           JUNCTION      0.15  1212.91     0  01:26     0.00446        4.08       0.003
  YS02001791           JUNCTION      0.00  1287.91     0  01:28           0        4.08      -0.000
  YS02001793           JUNCTION      0.00  1245.31     0  01:28           0        4.08      -0.059
  YS02001882           JUNCTION      0.00   212.76     0  01:24           0      0.0126       3.034
  YS02001884           JUNCTION      0.00   276.05     0  01:24           0       0.048       5.583
  YS02001887           JUNCTION    811.74   811.74     0  01:26         1.2        1.23       0.367
  YS02001890           JUNCTION      0.00   812.10     0  01:26           0        1.19       0.425
  YS02001895           JUNCTION      0.00   703.10     0  01:25           0         1.1       0.145
  YS02001898           JUNCTION      0.00   656.11     0  01:25           0        1.09      -0.068
  YS02001901           JUNCTION      0.00   569.47     0  01:25           0         1.1       0.301
  YS02001904           JUNCTION      0.00   567.93     0  01:25           0        1.13       0.244
  YS02001907           JUNCTION      0.00  1819.94     0  01:27           0         3.5       0.518
  YS02001910           JUNCTION      0.00  1290.43     0  01:27           0        2.39       0.297
  YS02001915           JUNCTION    826.60  1290.24     0  01:27        1.47        2.45       0.044
  YS02001918           JUNCTION      0.00  1038.53     0  01:25           0        1.01       0.054
  YS02001920           JUNCTION      2.87   989.04     0  01:25      0.0827       0.973       0.025
  YS02001923           JUNCTION      0.04  1439.72     0  01:25     0.00109       0.871      -0.371
  YS02001926           JUNCTION      0.05  1515.30     0  01:26      0.0015        0.85       0.008
  YS02001929           JUNCTION    418.27  1043.15     0  01:26       0.829       0.834      -0.185
  YS02006553           JUNCTION      0.00   787.47     0  01:47           0        2.45       0.488
  YS02006556           JUNCTION      0.00   786.96     0  01:47           0        2.47       0.331
  YS02006558           JUNCTION   1011.47  1224.88     0  01:25        1.66        4.09       0.083
  YS02006561           JUNCTION      0.00  1228.85     0  01:25           0        4.05      -0.001
  YS02163301           JUNCTION      0.00   958.75     0  01:51           0        3.81       0.039
  YS02163601           JUNCTION      0.11  1298.54     0  01:50     0.00317        5.23       0.096
  YS02164001           JUNCTION      0.00  1298.20     0  01:50           0        5.23       0.048
  YSB1154              JUNCTION    591.05   591.05     0  02:37       0.908       0.909       0.156
  YSB1171              JUNCTION      0.00  1301.41     0  02:36           0        1.78       0.339
  YSB1174              JUNCTION    482.36   482.36     0  02:36        0.68        0.68       0.176
  YSB6556              JUNCTION      0.00   591.10     0  02:37           0        0.91       0.114
  CC-1                 OUTFALL       0.00   683.00     0  00:00           0        5.22       0.000
  CC-2                 OUTFALL       0.00   683.00     0  00:00           0        5.22       0.000
  JK-1                 OUTFALL       0.00  1000.00     0  00:00           0        2.11       0.000
  JK-2                 OUTFALL       0.00  1000.00     0  00:00           0        2.11       0.000
  WSC                  OUTFALL       0.00  1574.79     0  02:39           0          15       0.000
  CC-storage           STORAGE       0.00  3354.78     0  01:33           0        13.6      -0.335
  JK-storage           STORAGE       0.00  1332.61     0  01:32           0        4.24     -12.783
  XR-storage           STORAGE     200.00   200.00     0  00:00        5.76        6.36       0.001
  
  
  **********************
  Node Surcharge Summary
  **********************
  
  Surcharging occurs when water rises above the top of the highest conduit.
  ---------------------------------------------------------------------
                                               Max. Height   Min. Depth
                                   Hours       Above Crown    Below Rim
  Node                 Type      Surcharged         Meters       Meters
  ---------------------------------------------------------------------
  HS02004478           JUNCTION        0.68          0.665        0.275
  HS02004479           JUNCTION        0.83          0.874        0.176
  HS02004480           JUNCTION        0.88          0.928        0.172
  HS02004770           JUNCTION        0.76          0.720        0.000
  HS02004777           JUNCTION        0.77          0.780        0.000
  HS02004785           JUNCTION        0.71          0.790        0.000
  HS02004788           JUNCTION        0.70          0.706        0.014
  HS02004792           JUNCTION        0.84          0.900        0.000
  HS02004799           JUNCTION        1.02          1.060        0.000
  HS02004802           JUNCTION        0.89          1.093        0.117
  HS02004807           JUNCTION        0.86          1.220        0.000
  HS02004817           JUNCTION        1.50          1.716        0.024
  HS02004824           JUNCTION        0.70          1.310        0.000
  HS02004830           JUNCTION        0.67          1.296        0.034
  HS02004837           JUNCTION        0.60          1.225        0.115
  HS02004842           JUNCTION        0.77          1.520        0.000
  HS02004848           JUNCTION        0.58          1.226        0.144
  HS02004852           JUNCTION        0.61          1.420        0.000
  HS02004856           JUNCTION        0.60          1.282        0.018
  HS02004862           JUNCTION        0.64          1.300        0.000
  HS02004870           JUNCTION        0.66          1.337        0.063
  HS02004876           JUNCTION        0.73          1.451        0.109
  HS02004881           JUNCTION        0.71          1.197        0.253
  HS02004901           JUNCTION        0.77          0.720        0.000
  WS02004401           JUNCTION        1.79          1.067        0.593
  WS02004402           JUNCTION        1.82          0.998        0.742
  WS02004403           JUNCTION        1.83          1.095        0.935
  WS02004404           JUNCTION        1.92          0.961        1.819
  WS02004405           JUNCTION        1.91          1.026        1.774
  WS02004406           JUNCTION        1.90          0.727        1.723
  WS02004407           JUNCTION        0.07          0.056        2.284
  WS02004409           JUNCTION        1.34          0.473        1.887
  WS02004410           JUNCTION        1.22          0.373        2.167
  WS02004411           JUNCTION        1.14          0.261        2.269
  WS02004412           JUNCTION        1.04          0.144        2.166
  WS02004413           JUNCTION        1.61          0.169        2.031
  WS02006109           JUNCTION        2.15          1.820        0.000
  WS02006110           JUNCTION        1.96          1.554        0.296
  WS02006111           JUNCTION        1.56          1.132        0.738
  WS02006112           JUNCTION        2.01          1.628        0.052
  WS02006113           JUNCTION        1.59          1.160        0.770
  WS02006115           JUNCTION        1.73          1.184        1.066
  WS02006116           JUNCTION        1.73          1.111        1.179
  WS02006228           JUNCTION        2.13          2.200        0.000
  WS02006229           JUNCTION        1.17          1.044        0.026
  WS02006230           JUNCTION        1.90          1.570        0.000
  WS02006231           JUNCTION        1.91          1.507        0.023
  WS02006232           JUNCTION        2.14          1.480        0.000
  WS02006234           JUNCTION        1.91          1.240        0.000
  WS02006235           JUNCTION        2.00          1.290        0.000
  WS02006238           JUNCTION        2.05          1.430        0.000
  WS02006239           JUNCTION        1.97          1.290        0.000
  WS02006240           JUNCTION        1.96          1.390        0.000
  WS02006242           JUNCTION        2.09          0.820        0.000
  WS02006243           JUNCTION        1.94          0.770        0.000
  WS02006245           JUNCTION        1.92          0.850        0.000
  WS02006247           JUNCTION        1.95          0.719        0.041
  WS02006248           JUNCTION        1.89          0.380        0.000
  WS02006249           JUNCTION        1.92          0.390        0.000
  WS02006251           JUNCTION        1.63          1.138        0.042
  WS02006252           JUNCTION        2.20          1.100        0.000
  WS02006253           JUNCTION        1.67          2.128        0.352
  WS02006256           JUNCTION        6.15          2.050        0.000
  WS02006280           JUNCTION        1.02          0.693        0.087
  WS02006284           JUNCTION        0.92          0.673        0.127
  WS02006287           JUNCTION        0.78          0.739        0.151
  YS02001580           JUNCTION        0.67          0.450        0.000
  YS02001583           JUNCTION        0.67          0.500        0.000
  YS02001586           JUNCTION        0.77          0.510        0.000
  YS02001590           JUNCTION        0.85          0.750        0.000
  YS02001593           JUNCTION        0.85          0.840        0.000
  YS02001596           JUNCTION        0.95          1.016        0.054
  YS02001600           JUNCTION        1.12          1.190        0.000
  YS02001601           JUNCTION        1.61          1.440        0.000
  YS02001602           JUNCTION        1.43          1.270        0.000
  YS02001605           JUNCTION        1.35          1.180        0.000
  YS02001607           JUNCTION        0.76          0.680        0.000
  YS02001610           JUNCTION        0.79          0.680        0.000
  YS02001613           JUNCTION        0.75          0.700        0.000
  YS02001616           JUNCTION        0.70          0.610        0.000
  YS02001619           JUNCTION        0.68          0.610        0.000
  YS02001622           JUNCTION        0.67          0.620        0.000
  YS02001625           JUNCTION        0.89          0.780        0.000
  YS02001629           JUNCTION        0.54          0.470        0.000
  YS02001633           JUNCTION        0.89          1.058        0.002
  YS02001641           JUNCTION        0.76          0.988        0.112
  YS02001644           JUNCTION        0.69          0.920        0.000
  YS02001647           JUNCTION        0.42          0.837        0.063
  YS02001649           JUNCTION        0.46          1.050        0.000
  YS02001652           JUNCTION        0.33          1.115        0.015
  YS02001655           JUNCTION        0.24          1.200        0.000
  YS02001658           JUNCTION        0.15          1.300        0.000
  YS02001661           JUNCTION        0.02          0.867        0.523
  YS02001745           JUNCTION        0.01          1.350        0.000
  YS02001748           JUNCTION        0.07          1.190        0.000
  YS02001751           JUNCTION        0.16          1.200        0.000
  YS02001754           JUNCTION        0.23          1.150        0.000
  YS02001757           JUNCTION        0.45          1.210        0.000
  YS02001759           JUNCTION        0.39          1.201        0.009
  YS02001762           JUNCTION        0.37          1.150        0.000
  YS02001765           JUNCTION        0.34          1.100        0.000
  YS02001767           JUNCTION        0.32          1.030        0.000
  YS02001770           JUNCTION        0.31          0.920        0.000
  YS02001774           JUNCTION        0.37          1.050        0.000
  YS02001779           JUNCTION        0.26          0.680        0.000
  YS02001783           JUNCTION        0.54          0.588        1.012
  YS02001784           JUNCTION        0.52          0.524        0.966
  YS02001786           JUNCTION        0.42          0.600        0.830
  YS02001882           JUNCTION        0.49          0.830        0.000
  YS02001884           JUNCTION        0.50          0.856        0.014
  YS02001887           JUNCTION        0.54          0.832        0.118
  YS02001890           JUNCTION        0.55          0.760        0.000
  YS02001895           JUNCTION        0.48          0.741        0.009
  YS02001898           JUNCTION        0.47          0.740        0.000
  YS02001901           JUNCTION        0.52          0.780        0.090
  YS02001904           JUNCTION        0.51          0.691        0.159
  YS02001907           JUNCTION        0.72          0.950        0.000
  YS02001910           JUNCTION        0.57          1.100        0.000
  YS02001915           JUNCTION        0.49          1.000        0.000
  YS02001918           JUNCTION        0.40          0.810        0.000
  YS02001920           JUNCTION        0.42          1.140        0.000
  YS02001923           JUNCTION        0.03          0.820        0.000
  YS02001926           JUNCTION        0.08          0.900        0.000
  YS02001929           JUNCTION        0.01          0.780        0.000
  YS02006553           JUNCTION        0.74          0.977        0.213
  YS02006556           JUNCTION        0.65          0.923        0.427
  YS02006558           JUNCTION        0.64          0.915        0.485
  YS02006561           JUNCTION        0.37          0.209        0.941
  YS02163301           JUNCTION        0.87          0.944        0.086
  YS02163601           JUNCTION        0.92          1.080        0.000
  YS02164001           JUNCTION        0.79          1.012        0.088
  YSB1154              JUNCTION        1.16          1.341        0.059
  YSB1171              JUNCTION        1.16          1.100        0.000
  YSB1174              JUNCTION        1.07          1.149        0.101
  YSB6556              JUNCTION        0.97          1.095        0.005
  
  
  *********************
  Node Flooding Summary
  *********************
  
  Flooding refers to all water that overflows a node, whether it ponds or not.
  --------------------------------------------------------------------------
                                                             Total   Maximum
                                 Maximum   Time of Max       Flood    Ponded
                        Hours       Rate    Occurrence      Volume     Depth
  Node                 Flooded       LPS   days hr:min    10^6 ltr    Meters
  --------------------------------------------------------------------------
  HS02004770              0.57   2204.54      0  02:37       1.476     0.000
  HS02004777              0.01     19.75      0  02:13       0.000     0.000
  HS02004785              0.01     53.53      0  02:13       0.000     0.000
  HS02004792              0.54   3121.84      0  02:37       2.544     0.000
  HS02004799              0.28    283.60      0  02:36       0.137     0.000
  HS02004807              0.19    539.32      0  02:36       0.242     0.000
  HS02004824              0.14    377.47      0  02:37       0.115     0.000
  HS02004842              0.14    416.96      0  02:37       0.109     0.000
  HS02004852              0.01    190.34      0  02:17       0.000     0.000
  HS02004862              0.12    385.97      0  02:37       0.084     0.000
  HS02004901              0.64    825.67      0  02:37       1.088     0.000
  WS02006109              0.57    406.21      0  02:36       0.431     0.000
  WS02006228              0.01      2.03      0  02:31       0.000     0.000
  WS02006230              0.93    572.84      0  02:31       1.326     0.000
  WS02006232              0.24      7.85      0  02:51       0.000     0.000
  WS02006234              1.06     89.25      0  02:51       0.192     0.000
  WS02006235              0.05     56.64      0  01:52       0.003     0.000
  WS02006238              0.01     21.40      0  01:32       0.000     0.000
  WS02006239              0.01     11.76      0  01:32       0.000     0.000
  WS02006240              0.01     69.81      0  01:28       0.000     0.000
  WS02006242              1.35    128.12      0  02:06       0.477     0.000
  WS02006243              0.01    125.17      0  03:18       0.000     0.000
  WS02006245              0.01      0.14      0  02:12       0.000     0.000
  WS02006248              1.60    339.21      0  02:26       1.513     0.000
  WS02006249              1.68   1323.43      0  02:36       5.194     0.000
  WS02006252              0.66    746.22      0  02:36       0.890     0.000
  WS02006256              0.60    299.76      0  01:24       0.448     0.000
  YS02001580              0.01    318.20      0  01:24       0.002     0.000
  YS02001583              0.01    235.78      0  01:24       0.001     0.000
  YS02001586              0.53    369.73      0  01:31       0.385     0.000
  YS02001590              0.01    215.24      0  01:23       0.001     0.000
  YS02001593              0.01     63.63      0  01:23       0.000     0.000
  YS02001600              0.01     23.61      0  01:23       0.000     0.000
  YS02001601              0.68   1155.89      0  01:29       1.336     0.000
  YS02001602              0.46     61.91      0  01:44       0.096     0.000
  YS02001605              0.01     12.89      0  01:25       0.000     0.000
  YS02001607              0.01    304.17      0  01:25       0.002     0.000
  YS02001610              0.42    633.58      0  01:30       0.643     0.000
  YS02001613              0.01    298.97      0  01:25       0.001     0.000
  YS02001616              0.01    451.17      0  01:25       0.004     0.000
  YS02001619              0.01    219.99      0  01:25       0.000     0.000
  YS02001622              0.01    432.79      0  01:25       0.001     0.000
  YS02001625              0.34   1251.75      0  01:31       0.860     0.000
  YS02001629              0.09    330.06      0  01:24       0.048     0.000
  YS02001644              0.14    978.43      0  01:27       0.230     0.000
  YS02001649              0.01    189.40      0  01:27       0.002     0.000
  YS02001655              0.01    453.30      0  01:26       0.001     0.000
  YS02001658              0.01    255.50      0  01:26       0.001     0.000
  YS02001745              0.01    309.05      0  01:26       0.000     0.000
  YS02001748              0.01    420.10      0  01:26       0.002     0.000
  YS02001751              0.01     30.02      0  01:26       0.000     0.000
  YS02001754              0.01    391.70      0  01:26       0.001     0.000
  YS02001757              0.01     89.23      0  01:27       0.000     0.000
  YS02001762              0.01    108.76      0  01:26       0.000     0.000
  YS02001765              0.01     20.74      0  01:26       0.000     0.000
  YS02001767              0.01     77.37      0  01:26       0.000     0.000
  YS02001770              0.01    355.78      0  01:26       0.001     0.000
  YS02001774              0.01    207.07      0  01:26       0.000     0.000
  YS02001779              0.12    792.06      0  01:26       0.130     0.000
  YS02001882              0.01    167.93      0  01:25       0.000     0.000
  YS02001890              0.14    340.99      0  01:25       0.086     0.000
  YS02001898              0.01    537.76      0  01:25       0.002     0.000
  YS02001907              0.34   1672.55      0  01:27       1.021     0.000
  YS02001910              0.01     33.98      0  01:25       0.000     0.000
  YS02001915              0.01    407.48      0  01:25       0.001     0.000
  YS02001918              0.01    271.61      0  01:25       0.006     0.000
  YS02001920              0.01     51.47      0  01:26       0.000     0.000
  YS02001923              0.01    932.98      0  01:25       0.003     0.000
  YS02001926              0.01    712.55      0  01:26       0.003     0.000
  YS02001929              0.01    933.10      0  01:26       0.005     0.000
  YS02163601              0.01      8.69      0  01:25       0.000     0.000
  YSB1171                 0.39   1301.07      0  02:36       0.949     0.000
  
  
  **********************
  Storage Volume Summary
  **********************
  
  --------------------------------------------------------------------------------------------------
                         Average     Avg  Evap Exfil       Maximum     Max    Time of Max    Maximum
                          Volume    Pcnt  Pcnt  Pcnt        Volume    Pcnt     Occurrence    Outflow
  Storage Unit           1000 m3    Full  Loss  Loss       1000 m3    Full    days hr:min        LPS
  --------------------------------------------------------------------------------------------------
  CC-storage               0.776      12     0     0         2.656      41       0  02:08    1783.53
  JK-storage               0.003       1     0     0         0.150      52       0  00:00    2300.00
  XR-storage               0.932      65     0     0         1.111      77       0  08:00     380.00
  
  
  ***********************
  Outfall Loading Summary
  ***********************
  
  -----------------------------------------------------------
                         Flow       Avg       Max       Total
                         Freq      Flow      Flow      Volume
  Outfall Node           Pcnt       LPS       LPS    10^6 ltr
  -----------------------------------------------------------
  CC-1                  44.34    683.00    683.00       5.221
  CC-2                  44.34    683.00    683.00       5.221
  JK-1                  13.16    993.03   1000.00       2.109
  JK-2                  13.16    993.03   1000.00       2.109
  WSC                   99.95    669.68   1574.79      15.012
  -----------------------------------------------------------
  System                42.99   4021.75   1574.79      29.672
  
  
  ********************
  Link Flow Summary
  ********************
  
  -----------------------------------------------------------------------------
                                 Maximum  Time of Max   Maximum    Max/    Max/
                                  |Flow|   Occurrence   |Veloc|    Full    Full
  Link                 Type          LPS  days hr:min     m/sec    Flow   Depth
  -----------------------------------------------------------------------------
  1                    CONDUIT   1574.79     0  02:39      3.74    0.55    0.53
  HS02004478WS02006287 CONDUIT   2303.84     0  02:31      2.59    0.64    1.00
  HS02004479HS02004480 CONDUIT    371.08     0  02:23      0.53    0.36    1.00
  HS02004480HS02004478 CONDUIT   2004.91     0  02:17      2.86    8.44    1.00
  HS02004770HS02004777 CONDUIT    679.20     0  02:14      0.97    1.24    1.00
  HS02004777HS02004785 CONDUIT    678.84     0  02:14      1.00    0.84    1.00
  HS02004785HS02004788 CONDUIT    680.66     0  02:14      1.36    5.13    1.00
  HS02004788HS02004792 CONDUIT    926.74     0  02:36      1.44    0.61    1.00
  HS02004792HS02004799 CONDUIT   1615.19     0  02:16      2.31    0.99    1.00
  HS02004799HS02004480 CONDUIT   1727.43     0  02:16      2.47    2.18    1.00
  HS02004802HS02004478 CONDUIT   1233.54     0  02:33      1.76    1.09    1.00
  HS02004807HS02004802 CONDUIT   1233.12     0  02:37      1.76    2.35    1.00
  HS02004817HS02004807 CONDUIT   1197.07     0  02:37      1.71    0.71    1.00
  HS02004817HS02004824 CONDUIT   1196.47     0  02:38      1.71    0.54    1.00
  HS02004824HS02004830 CONDUIT    599.56     0  02:36      0.86    0.78    1.00
  HS02004830HS02004837 CONDUIT    599.34     0  02:36      0.86    0.60    1.00
  HS02004837HS02004842 CONDUIT    659.57     0  02:17      0.94    0.39    1.00
  HS02004842HS02004848 CONDUIT    659.96     0  02:17      1.00    0.38    1.00
  HS02004848HS02004852 CONDUIT    858.34     0  02:17      1.47    0.97    1.00
  HS02004852HS02004856 CONDUIT    834.20     0  02:16      1.38    0.95    1.00
  HS02004856HS02004862 CONDUIT    861.45     0  02:16      1.57    0.86    1.00
  HS02004862HS02004870 CONDUIT   1090.01     0  02:41      1.69    1.18    1.00
  HS02004870HS02004876 CONDUIT   1256.42     0  02:40      1.79    0.83    1.00
  HS02004876HS02004881 CONDUIT   1522.57     0  02:39      2.20   16.19    1.00
  HS02004881HS02006253 CONDUIT   1673.67     0  02:36      2.39    0.33    1.00
  HS02004901HS02004770 CONDUIT    265.79     0  02:48      0.38    1.00    1.00
  WS02001211WS02001212 CONDUIT    222.85     0  03:10      0.54    0.17    0.71
  WS02001212WS02001213 CONDUIT    231.38     0  03:10      1.04    0.36    0.58
  WS02001213WS02003059 CONDUIT    240.89     0  03:09      0.47    0.40    0.91
  WS02003059WS02003060 CONDUIT    250.63     0  03:09      0.65    0.16    0.83
  WS02003060WS02003069 CONDUIT   1573.35     0  02:37      2.11    0.62    0.63
  WS02003066WSF200     CONDUIT   1379.42     0  02:36      3.28    0.23    0.40
  WS02003067WS02003066 CONDUIT   1378.77     0  02:36      2.07    0.44    0.57
  WS02003069WS02003072 CONDUIT   1572.07     0  02:38      1.92    0.76    0.68
  WS02003072WS02003073 CONDUIT   1572.45     0  02:38      2.09    3.40    0.63
  WS02004138WS02004139 CONDUIT    190.00     0  00:32      2.16    0.04    0.42
  WS02004139WS02001211 CONDUIT    203.18     0  03:10      0.54    0.26    0.62
  WS02004401WS02004402 CONDUIT   1374.66     0  02:36      1.75    1.65    1.00
  WS02004402WS02004403 CONDUIT   1374.92     0  02:36      1.75    1.98    1.00
  WS02004403WS02004404 CONDUIT   1374.87     0  02:37      1.75    0.99    1.00
  WS02004404WS02004405 CONDUIT   1376.43     0  02:37      1.75   13.49    1.00
  WS02004405WS02004406 CONDUIT   1375.86     0  02:37      1.75    2.71    1.00
  WS02004406WS02004407 CONDUIT   1375.90     0  02:37      1.75    0.61    1.00
  WS02004407WS02004409 CONDUIT   1375.01     0  02:36      1.88    0.49    1.00
  WS02004409WS02004410 CONDUIT   1375.54     0  02:36      1.75    1.78    1.00
  WS02004410WS02004411 CONDUIT   1375.70     0  02:36      1.75    1.88    1.00
  WS02004411WS02004412 CONDUIT   1375.65     0  02:36      1.75    1.95    1.00
  WS02004412WS02004413 CONDUIT   1376.09     0  02:36      1.75    0.92    1.00
  WS02004413WS02003067 CONDUIT   1376.41     0  02:36      2.10    0.59    0.78
  WS02006109WS02006110 CONDUIT   1124.75     0  02:51      2.24    2.16    1.00
  WS02006110WS02006113 CONDUIT   1125.13     0  02:51      2.24    1.02    1.00
  WS02006111WS02006112 CONDUIT   1125.73     0  02:51      2.24    0.54    1.00
  WS02006112WS02006115 CONDUIT   1375.10     0  02:36      1.75    0.81    1.00
  WS02006113WS02006111 CONDUIT   1125.56     0  02:51      2.76    1.35    1.00
  WS02006115WS02006116 CONDUIT   1375.13     0  02:36      1.75    1.76    1.00
  WS02006116WS02004401 CONDUIT   1374.82     0  02:37      1.75    1.89    1.00
  WS02006228WS02006109 CONDUIT   1287.41     0  02:31      2.56    5.62    1.00
  WS02006229WS02006228 CONDUIT   1289.18     0  02:31      2.56    4.27    1.00
  WS02006230WS02006229 CONDUIT   1015.35     0  02:31      2.64   22.60    1.00
  WS02006231WS02006230 CONDUIT    478.74     0  02:51      1.38    7.26    1.00
  WS02006232WS02006231 CONDUIT    476.47     0  02:51      1.24    1.00    1.00
  WS02006234WS02006232 CONDUIT    468.78     0  02:51      1.39    0.95    1.00
  WS02006235WS02006234 CONDUIT    448.03     0  02:51      1.21    4.73    1.00
  WS02006238WS02006235 CONDUIT    413.65     0  02:51      1.45    0.92    1.00
  WS02006239WS02006238 CONDUIT    404.86     0  02:26      1.10    1.30    1.00
  WS02006240WS02006239 CONDUIT    405.01     0  02:06      1.25    1.27    1.00
  WS02006242WS02006240 CONDUIT    406.21     0  02:26      1.15    1.61    1.00
  WS02006243WS02006242 CONDUIT    413.01     0  01:28      1.34    0.88    1.00
  WS02006245WS02006243 CONDUIT    445.10     0  01:28      1.44    1.32    1.00
  WS02006247WS02006245 CONDUIT    468.42     0  01:28      1.47    3.71    1.00
  WS02006248WS02006247 CONDUIT    470.88     0  01:28      1.42    1.02    1.00
  WS02006249WS02006248 CONDUIT    486.74     0  01:27      1.42    2.67    1.00
  WS02006251WS02006249 CONDUIT   1384.43     0  02:36      3.60    3.99    1.00
  WS02006252WS02006251 CONDUIT    411.37     0  03:03      4.83    1.51    1.00
  WS02006253WS02006251 CONDUIT   1729.92     0  02:36      4.50    5.19    1.00
  WS02006256WS02006235 CONDUIT    288.93     0  00:00      4.23    3.06    1.00
  WS02006280WS02006229 CONDUIT   2303.91     0  02:31      4.02    0.49    1.00
  WS02006284WS02006280 CONDUIT   2303.54     0  02:31      3.01    0.96    1.00
  WS02006287WS02006284 CONDUIT   2302.83     0  02:31      2.93    1.07    1.00
  WSF200WS02003060     CONDUIT   1383.38     0  02:36      2.33    0.31    0.52
  YS02001580YS02001583 CONDUIT    331.06     0  01:24      1.23    1.28    1.00
  YS02001583YS02001586 CONDUIT    319.74     0  01:24      1.40    0.48    1.00
  YS02001586YS02001590 CONDUIT    317.92     0  01:29      1.37    0.56    1.00
  YS02001590YS02001593 CONDUIT    317.91     0  01:28      1.12    2.00    1.00
  YS02001593YS02001596 CONDUIT    317.90     0  01:44      1.75    0.50    1.00
  YS02001596YS02001600 CONDUIT    317.90     0  01:55      1.20    0.62    1.00
  YS02001600YS02001601 CONDUIT    317.84     0  01:29      1.12    0.55    1.00
  YS02001601YS02001602 CONDUIT    602.69     0  01:24      2.13    2.18    1.00
  YS02001602YS02001605 CONDUIT    602.86     0  01:24      2.13   12.76    1.00
  YS02001605YS02001607 CONDUIT    602.56     0  01:24      2.13    3.30    1.00
  YS02001607YS02001610 CONDUIT    575.07     0  01:24      0.82    0.55    1.00
  YS02001610YS02001613 CONDUIT    534.58     0  01:24      0.76    0.62    1.00
  YS02001613YS02001616 CONDUIT    513.38     0  02:04      0.73    0.44    1.00
  YS02001616YS02001619 CONDUIT    513.37     0  02:04      0.67    0.89    1.00
  YS02001619YS02001622 CONDUIT    986.50     0  01:24      1.57    1.45    1.00
  YS02001622YS02001625 CONDUIT    956.88     0  01:51      1.22    0.51    1.00
  YS02001625YS02001629 CONDUIT    956.99     0  01:51      1.22    0.46    1.00
  YS02001629YS02163301 CONDUIT    958.75     0  01:51      1.22    1.18    1.00
  YS02001633YS02163601 CONDUIT   1298.43     0  01:50      1.65    1.36    1.00
  YS02001641YS02001644 CONDUIT   1298.54     0  01:50      1.65    4.20    1.00
  YS02001644YS02001647 CONDUIT   1918.95     0  01:25      2.44    1.13    1.00
  YS02001647YS02001649 CONDUIT   1919.15     0  01:25      2.44    1.01    1.00
  YS02001649YS02001757 CONDUIT   2172.81     0  01:25      2.77    1.32    1.00
  YS02001652YS02001649 CONDUIT   1010.98     0  01:27      1.29    0.50    1.00
  YS02001655YS02001652 CONDUIT   1011.35     0  01:27      1.87    0.49    1.00
  YS02001658YS02001655 CONDUIT   1010.37     0  01:27      2.25    0.43    1.00
  YS02001661YS02001658 CONDUIT   1009.72     0  01:27      2.61    0.40    1.00
  YS02001664YS02001661 CONDUIT   1008.04     0  01:27      2.63    0.32    0.99
  YS02001745YS02001748 CONDUIT    603.27     0  01:27      2.54    0.23    1.00
  YS02001748YS02001751 CONDUIT    602.73     0  01:27      2.04    0.30    1.00
  YS02001751YS02001754 CONDUIT    602.05     0  01:27      1.86    0.29    1.00
  YS02001754YS02001757 CONDUIT    602.76     0  01:27      0.78    0.24    1.00
  YS02001757CaochengTiaoxuchi CONDUIT   3354.78     0  01:33      7.12    1.45    0.91
  YS02001759YS02001757 CONDUIT   1405.33     0  01:26      1.79    1.00    1.00
  YS02001762YS02001759 CONDUIT    797.66     0  01:33      1.02    0.92    1.00
  YS02001765YS02001762 CONDUIT    796.92     0  01:33      1.01    0.75    1.00
  YS02001767YS02001765 CONDUIT    797.11     0  01:33      1.01    1.00    1.00
  YS02001770YS02001767 CONDUIT    795.85     0  01:33      1.10    3.15    1.00
  YS02001774YS02001770 CONDUIT    832.49     0  01:26      1.06    0.53    1.00
  YS02001779YS02001774 CONDUIT    845.38     0  01:26      1.09    0.43    1.00
  YS02001783YS02001784 CONDUIT   1163.67     0  01:26      2.32    1.60    1.00
  YS02001784YS02001785 CONDUIT   1164.45     0  01:26      2.32    2.71    1.00
  YS02001786YS02001788 CONDUIT   1164.81     0  01:26      2.51    2.24    0.90
  YS02001788YS02001790 CONDUIT   1212.75     0  01:26      2.79    0.89    0.84
  YS02001790YS02001791 CONDUIT   1287.91     0  01:28      3.43    1.40    0.70
  YS02001791YS02001793 CONDUIT   1245.31     0  01:28      6.44    0.53    0.43
  YS02001793JiankangQianchi CONDUIT   1332.61     0  01:32     24.40    0.11    0.50
  YS02001882YS02001884 CONDUIT    212.76     0  01:24      0.27    0.24    1.00
  YS02001884YS02001887 CONDUIT    276.05     0  01:24      0.35    0.37    1.00
  YS02001887YS02001890 CONDUIT    812.10     0  01:26      1.03    1.39    1.00
  YS02001890YS02001895 CONDUIT    703.10     0  01:25      0.90    0.33    1.00
  YS02001895YS02001898 CONDUIT    656.11     0  01:25      0.84    1.14    1.00
  YS02001898YS02001901 CONDUIT    569.47     0  01:25      0.73    0.37    1.00
  YS02001901YS02001904 CONDUIT    567.93     0  01:25      0.72    0.88    1.00
  YS02001904YS02001907 CONDUIT    568.72     0  01:25      0.72    0.20    1.00
  YS02001907YS02006553 CONDUIT    787.47     0  01:47      0.87    0.93    1.00
  YS02001910YS02001907 CONDUIT   1290.33     0  01:27      1.64    0.73    1.00
  YS02001915YS02001910 CONDUIT   1290.43     0  01:27      1.64    0.64    1.00
  YS02001918YS02001915 CONDUIT   1038.53     0  01:25      1.32    0.57    1.00
  YS02001920YS02001918 CONDUIT    986.17     0  01:25      1.27    0.95    1.00
  YS02001923YS02001920 CONDUIT   1016.51     0  01:25      1.37    0.46    1.00
  YS02001926YS02001923 CONDUIT   1175.09     0  01:26      1.65    1.68    1.00
  YS02001929YS02001926 CONDUIT    692.32     0  01:26      1.37    0.33    1.00
  YS02006553YS02006556 CONDUIT    786.96     0  01:47      1.00    0.67    1.00
  YS02006556YS02006558 CONDUIT    787.83     0  01:47      1.00    0.62    1.00
  YS02006558YS02006561 CONDUIT   1228.85     0  01:25      4.35    2.72    1.00
  YS02006561YS02001783 CONDUIT   1163.24     0  01:26      2.31    0.60    1.00
  YS02163301YS02001633 CONDUIT    958.65     0  01:51      1.22    0.90    1.00
  YS02163601YS02164001 CONDUIT   1298.20     0  01:50      1.65    1.15    1.00
  YS02164001YS02001641 CONDUIT   1298.86     0  01:50      1.65    1.77    1.00
  YSB1154YSB6556       CONDUIT    591.10     0  02:37      1.54    1.06    1.00
  YSB1171HS02004479    CONDUIT    371.05     0  02:22      0.74    0.25    1.00
  YSB1174YSB1171       CONDUIT    482.52     0  02:36      1.25    0.74    1.00
  YSB6556YSB1171       CONDUIT    591.31     0  02:37      1.54    0.61    1.00
  CC-R1                PUMP       683.00     0  00:00              1.00
  CC-R2                PUMP       683.00     0  00:00              1.00
  CC-S1                PUMP       200.00     0  00:00              1.00
  CC-S2                PUMP       200.00     0  00:00              1.00
  JK-R1                PUMP      1000.00     0  00:00              1.00
  JK-R2                PUMP      1000.00     0  00:00              1.00
  JK-S                 PUMP       300.00     0  00:00              1.00
  XR-1                 PUMP        95.00     0  00:00              1.00
  XR-2                 PUMP        95.00     0  00:00              1.00
  XR-3                 PUMP        95.00     0  00:00              1.00
  XR-4                 PUMP        95.00     0  00:00              1.00
  
  
  ***************************
  Flow Classification Summary
  ***************************
  
  -------------------------------------------------------------------------------------
                      Adjusted    ---------- Fraction of Time in Flow Class ---------- 
                       /Actual         Up    Down  Sub   Sup   Up    Down  Norm  Inlet 
  Conduit               Length    Dry  Dry   Dry   Crit  Crit  Crit  Crit  Ltd   Ctrl  
  -------------------------------------------------------------------------------------
  1                       1.00   0.00  0.00  0.00  0.00  1.00  0.00  0.00  0.37  0.00
  HS02004478WS02006287    1.00   0.15  0.00  0.00  0.53  0.32  0.00  0.00  0.57  0.00
  HS02004479HS02004480    1.00   0.06  0.00  0.00  0.94  0.00  0.00  0.00  0.11  0.00
  HS02004480HS02004478    1.00   0.14  0.00  0.00  0.48  0.00  0.00  0.38  0.00  0.00
  HS02004770HS02004777    1.00   0.00  0.13  0.00  0.87  0.00  0.00  0.00  0.02  0.00
  HS02004777HS02004785    1.00   0.00  0.00  0.00  1.00  0.00  0.00  0.00  0.11  0.00
  HS02004785HS02004788    1.00   0.00  0.00  0.00  1.00  0.00  0.00  0.00  0.00  0.00
  HS02004788HS02004792    1.00   0.00  0.00  0.00  0.99  0.01  0.00  0.00  0.87  0.00
  HS02004792HS02004799    1.00   0.00  0.00  0.00  0.99  0.01  0.00  0.00  0.82  0.00
  HS02004799HS02004480    1.00   0.00  0.05  0.00  0.85  0.00  0.09  0.00  0.00  0.00
  HS02004802HS02004478    1.00   0.14  0.00  0.00  0.86  0.00  0.00  0.00  0.02  0.00
  HS02004807HS02004802    1.00   0.13  0.00  0.00  0.86  0.00  0.00  0.01  0.00  0.00
  HS02004817HS02004807    1.00   0.00  0.13  0.00  0.87  0.00  0.00  0.00  0.01  0.00
  HS02004817HS02004824    1.00   0.00  0.00  0.00  1.00  0.00  0.00  0.00  0.78  0.00
  HS02004824HS02004830    1.00   0.00  0.00  0.00  1.00  0.00  0.00  0.00  0.02  0.00
  HS02004830HS02004837    1.00   0.00  0.00  0.00  1.00  0.00  0.00  0.00  0.84  0.00
  HS02004837HS02004842    1.00   0.00  0.00  0.00  1.00  0.00  0.00  0.00  0.11  0.00
  HS02004842HS02004848    1.00   0.00  0.13  0.00  0.87  0.00  0.00  0.00  0.53  0.00
  HS02004848HS02004852    1.00   0.13  0.00  0.00  0.87  0.00  0.00  0.00  0.68  0.00
  HS02004852HS02004856    1.00   0.13  0.00  0.00  0.86  0.00  0.00  0.00  0.64  0.00
  HS02004856HS02004862    1.00   0.00  0.15  0.00  0.85  0.00  0.00  0.00  0.72  0.00
  HS02004862HS02004870    1.00   0.00  0.00  0.00  1.00  0.00  0.00  0.00  0.02  0.00
  HS02004870HS02004876    1.00   0.00  0.00  0.00  0.97  0.02  0.00  0.00  0.83  0.00
  HS02004876HS02004881    1.00   0.02  0.00  0.00  0.68  0.31  0.00  0.00  0.00  0.00
  HS02004881HS02006253    1.00   0.00  0.08  0.00  0.42  0.01  0.00  0.49  0.14  0.00
  HS02004901HS02004770    1.00   0.13  0.00  0.00  0.87  0.00  0.00  0.00  0.00  0.00
  WS02001211WS02001212    1.00   0.00  0.03  0.00  0.97  0.00  0.00  0.00  0.00  0.00
  WS02001212WS02001213    1.00   0.03  0.00  0.00  0.48  0.00  0.49  0.00  0.00  0.00
  WS02001213WS02003059    1.00   0.00  0.00  0.00  0.99  0.00  0.00  0.00  0.00  0.00
  WS02003059WS02003060    1.00   0.00  0.00  0.00  1.00  0.00  0.00  0.00  0.03  0.00
  WS02003060WS02003069    1.00   0.00  0.00  0.00  0.97  0.03  0.00  0.00  0.53  0.00
  WS02003066WSF200        1.00   0.08  0.00  0.00  0.00  0.92  0.00  0.00  0.68  0.00
  WS02003067WS02003066    1.00   0.07  0.01  0.00  0.92  0.00  0.00  0.00  0.00  0.00
  WS02003069WS02003072    1.00   0.00  0.00  0.00  1.00  0.00  0.00  0.00  0.64  0.00
  WS02003072WS02003073    1.00   0.00  0.00  0.00  0.00  0.00  0.00  1.00  0.00  0.00
  WS02004138WS02004139    1.00   0.00  0.01  0.00  0.96  0.01  0.00  0.01  0.98  0.00
  WS02004139WS02001211    1.00   0.00  0.00  0.00  0.99  0.00  0.00  0.00  0.00  0.00
  WS02004401WS02004402    1.00   0.03  0.00  0.00  0.97  0.00  0.00  0.00  0.00  0.00
  WS02004402WS02004403    1.00   0.03  0.00  0.00  0.97  0.00  0.00  0.00  0.00  0.00
  WS02004403WS02004404    1.00   0.00  0.03  0.00  0.97  0.00  0.00  0.00  0.00  0.00
  WS02004404WS02004405    1.00   0.00  0.00  0.00  1.00  0.00  0.00  0.00  0.00  0.00
  WS02004405WS02004406    1.00   0.00  0.00  0.00  1.00  0.00  0.00  0.00  0.00  0.00
  WS02004406WS02004407    1.00   0.00  0.05  0.00  0.94  0.00  0.00  0.00  0.00  0.00
  WS02004407WS02004409    1.00   0.06  0.00  0.00  0.93  0.01  0.00  0.00  0.79  0.00
  WS02004409WS02004410    1.00   0.06  0.00  0.00  0.94  0.00  0.00  0.00  0.00  0.00
  WS02004410WS02004411    1.00   0.06  0.00  0.00  0.94  0.00  0.00  0.00  0.00  0.00
[...]
  WS02006280WS02006229    1.00   0.14  0.00  0.00  0.30  0.06  0.00  0.49  0.00  0.00
  WS02006284WS02006280    1.00   0.14  0.00  0.00  0.20  0.02  0.00  0.64  0.00  0.00
  WS02006287WS02006284    1.00   0.12  0.02  0.00  0.45  0.40  0.00  0.00  0.62  0.00
  WSF200WS02003060        1.00   0.00  0.08  0.00  0.47  0.45  0.00  0.00  0.64  0.00
  YS02001580YS02001583    1.00   0.17  0.49  0.00  0.34  0.00  0.00  0.00  0.72  0.00
  YS02001583YS02001586    1.00   0.34  0.21  0.00  0.44  0.00  0.00  0.00  0.72  0.00
  YS02001586YS02001590    1.00   0.13  0.00  0.00  0.58  0.03  0.00  0.26  0.31  0.00
  YS02001590YS02001593    1.00   0.13  0.00  0.00  0.24  0.00  0.62  0.00  0.00  0.00
  YS02001593YS02001596    1.00   0.14  0.00  0.00  0.27  0.01  0.00  0.58  0.02  0.00
  YS02001596YS02001600    1.00   0.14  0.00  0.00  0.37  0.02  0.00  0.48  0.06  0.00
  YS02001600YS02001601    1.00   0.14  0.00  0.00  0.86  0.00  0.00  0.00  0.60  0.00
  YS02001601YS02001602    1.00   0.13  0.00  0.00  0.86  0.00  0.00  0.00  0.00  0.00
  YS02001602YS02001605    1.00   0.14  0.00  0.00  0.86  0.00  0.00  0.00  0.00  0.00
  YS02001605YS02001607    1.00   0.14  0.00  0.00  0.86  0.00  0.00  0.00  0.00  0.00
  YS02001607YS02001610    1.00   0.14  0.00  0.00  0.86  0.00  0.00  0.00  0.01  0.00
  YS02001610YS02001613    1.00   0.14  0.00  0.00  0.86  0.00  0.00  0.00  0.00  0.00
  YS02001613YS02001616    1.00   0.13  0.00  0.00  0.87  0.00  0.00  0.00  0.00  0.00
  YS02001616YS02001619    1.00   0.13  0.00  0.00  0.87  0.00  0.00  0.00  0.00  0.00
  YS02001619YS02001622    1.00   0.13  0.00  0.00  0.86  0.00  0.00  0.00  0.35  0.00
  YS02001622YS02001625    1.00   0.13  0.00  0.00  0.87  0.00  0.00  0.00  0.03  0.00
  YS02001625YS02001629    1.00   0.14  0.02  0.00  0.31  0.00  0.54  0.00  0.00  0.00
  YS02001629YS02163301    1.00   0.14  0.00  0.00  0.85  0.00  0.00  0.00  0.00  0.00
  YS02001633YS02163601    1.00   0.00  0.01  0.00  0.99  0.00  0.00  0.00  0.14  0.00
  YS02001641YS02001644    1.00   0.00  0.00  0.00  1.00  0.00  0.00  0.00  0.00  0.00
  YS02001644YS02001647    1.00   0.00  0.15  0.00  0.85  0.00  0.00  0.00  0.00  0.00
  YS02001647YS02001649    1.00   0.00  0.15  0.00  0.48  0.37  0.00  0.00  0.58  0.00
  YS02001649YS02001757    1.00   0.00  0.00  0.00  0.67  0.33  0.00  0.00  0.63  0.00
  YS02001652YS02001649    1.00   0.00  0.00  0.00  0.98  0.02  0.00  0.00  0.73  0.00
  YS02001655YS02001652    1.00   0.00  0.00  0.00  0.33  0.04  0.00  0.63  0.12  0.00
  YS02001658YS02001655    1.00   0.00  0.14  0.00  0.52  0.34  0.00  0.00  0.76  0.00
  YS02001661YS02001658    1.00   0.14  0.00  0.00  0.36  0.50  0.00  0.00  0.78  0.00
  YS02001664YS02001661    1.00   0.13  0.00  0.00  0.60  0.26  0.00  0.00  0.85  0.00
  YS02001745YS02001748    1.00   0.00  0.00  0.00  0.08  0.02  0.00  0.90  0.03  0.00
  YS02001748YS02001751    1.00   0.00  0.00  0.00  0.69  0.31  0.00  0.00  0.85  0.00
  YS02001751YS02001754    1.00   0.00  0.00  0.00  0.24  0.02  0.00  0.75  0.05  0.00
  YS02001754YS02001757    1.00   0.00  0.00  0.00  1.00  0.00  0.00  0.00  0.85  0.00
  YS02001757CaochengTiaoxuchi    1.00   0.00  0.00  0.00  0.38  0.62  0.00  0.00  0.45  0.00
  YS02001759YS02001757    1.00   0.00  0.00  0.00  1.00  0.00  0.00  0.00  0.66  0.00
  YS02001762YS02001759    1.00   0.00  0.00  0.00  1.00  0.00  0.00  0.00  0.03  0.00
  YS02001765YS02001762    1.00   0.00  0.00  0.00  1.00  0.00  0.00  0.00  0.72  0.00
  YS02001767YS02001765    1.00   0.00  0.00  0.00  1.00  0.00  0.00  0.00  0.00  0.00
  YS02001770YS02001767    1.00   0.00  0.00  0.00  1.00  0.00  0.00  0.00  0.00  0.00
  YS02001774YS02001770    1.00   0.00  0.14  0.00  0.71  0.00  0.15  0.00  0.02  0.00
  YS02001779YS02001774    1.00   0.00  0.00  0.00  1.00  0.00  0.00  0.00  0.77  0.00
  YS02001783YS02001784    1.00   0.00  0.15  0.00  0.85  0.00  0.00  0.00  0.57  0.00
  YS02001784YS02001785    1.00   0.00  0.00  0.00  1.00  0.00  0.00  0.00  0.15  0.00
  YS02001786YS02001788    1.00   0.00  0.00  0.00  0.67  0.33  0.00  0.00  0.00  0.00
  YS02001788YS02001790    1.00   0.00  0.00  0.00  0.21  0.79  0.00  0.00  0.80  0.00
  YS02001790YS02001791    1.00   0.00  0.00  0.00  0.01  0.99  0.00  0.00  0.17  0.00
  YS02001791YS02001793    1.00   0.00  0.00  0.00  0.00  1.00  0.00  0.00  0.01  0.00
  YS02001793JiankangQianchi    1.00   0.00  0.00  0.00  0.13  0.87  0.00  0.00  0.61  0.00
  YS02001882YS02001884    1.00   0.14  0.00  0.00  0.85  0.00  0.00  0.00  0.00  0.00
  YS02001884YS02001887    1.00   0.09  0.04  0.00  0.87  0.00  0.00  0.00  0.00  0.00
  YS02001887YS02001890    1.00   0.00  0.00  0.00  0.96  0.00  0.04  0.00  0.00  0.00
  YS02001890YS02001895    1.00   0.00  0.14  0.00  0.85  0.00  0.00  0.00  0.00  0.00
  YS02001895YS02001898    1.00   0.15  0.00  0.00  0.84  0.00  0.01  0.00  0.00  0.00
  YS02001898YS02001901    1.00   0.15  0.00  0.00  0.85  0.00  0.00  0.00  0.00  0.00
  YS02001901YS02001904    1.00   0.15  0.00  0.00  0.85  0.00  0.00  0.00  0.00  0.00
  YS02001904YS02001907    1.00   0.00  0.15  0.00  0.85  0.00  0.00  0.00  0.00  0.00
  YS02001907YS02006553    1.00   0.00  0.02  0.00  0.97  0.00  0.00  0.00  0.00  0.00
  YS02001910YS02001907    1.00   0.00  0.00  0.00  0.96  0.01  0.00  0.03  0.12  0.00
  YS02001915YS02001910    1.00   0.00  0.00  0.00  0.97  0.03  0.00  0.00  0.13  0.00
  YS02001918YS02001915    1.00   0.00  0.00  0.00  0.97  0.03  0.00  0.00  0.75  0.00
  YS02001920YS02001918    1.00   0.00  0.00  0.00  1.00  0.00  0.00  0.00  0.00  0.00
  YS02001923YS02001920    1.00   0.00  0.00  0.00  1.00  0.00  0.00  0.00  0.92  0.00
  YS02001926YS02001923    1.00   0.00  0.10  0.00  0.13  0.00  0.77  0.00  0.00  0.00
  YS02001929YS02001926    1.00   0.00  0.13  0.00  0.87  0.00  0.00  0.00  0.82  0.00
  YS02006553YS02006556    1.00   0.01  0.00  0.00  0.99  0.00  0.00  0.00  0.03  0.00
  YS02006556YS02006558    1.00   0.00  0.00  0.00  1.00  0.00  0.00  0.00  0.00  0.00
  YS02006558YS02006561    1.00   0.15  0.00  0.00  0.12  0.73  0.00  0.00  0.18  0.00
  YS02006561YS02001783    1.00   0.15  0.00  0.00  0.18  0.67  0.00  0.00  0.70  0.00
  YS02163301YS02001633    1.00   0.00  0.14  0.00  0.86  0.00  0.00  0.00  0.00  0.00
  YS02163601YS02164001    1.00   0.00  0.11  0.00  0.89  0.00  0.00  0.00  0.00  0.00
  YS02164001YS02001641    1.00   0.01  0.10  0.00  0.89  0.00  0.00  0.00  0.05  0.00
  YSB1154YSB6556          1.00   0.13  0.00  0.00  0.87  0.00  0.00  0.00  0.01  0.00
  YSB1171HS02004479       1.00   0.06  0.00  0.00  0.91  0.00  0.00  0.02  0.09  0.00
  YSB1174YSB1171          1.00   0.08  0.04  0.00  0.88  0.00  0.00  0.00  0.00  0.00
  YSB6556YSB1171          1.00   0.06  0.07  0.00  0.87  0.00  0.00  0.00  0.00  0.00
  
  
  *************************
  Conduit Surcharge Summary
  *************************
  
  ----------------------------------------------------------------------------
                                                           Hours        Hours 
                         --------- Hours Full --------   Above Full   Capacity
  Conduit                Both Ends  Upstream  Dnstream   Normal Flow   Limited
  ----------------------------------------------------------------------------
  HS02004478WS02006287        0.68      0.68      0.89      0.01         0.01
  HS02004479HS02004480        0.88      0.88      0.92      0.01         0.01
  HS02004480HS02004478        0.79      0.88      0.79      1.98         0.79
  HS02004770HS02004777        0.76      0.76      0.77      0.15         0.09
  HS02004777HS02004785        0.71      0.71      0.77      0.01         0.01
  HS02004785HS02004788        0.70      0.71      0.70      1.64         0.60
  HS02004788HS02004792        0.70      0.70      0.84      0.01         0.01
  HS02004792HS02004799        0.84      0.84      1.02      0.01         0.01
  HS02004799HS02004480        0.88      0.88      1.02      1.13         0.01
  HS02004802HS02004478        0.80      0.80      0.91      0.21         0.01
  HS02004807HS02004802        0.86      0.86      0.89      0.38         0.39
  HS02004817HS02004807        0.86      0.86      1.50      0.01         0.01
  HS02004817HS02004824        0.70      0.70      1.50      0.01         0.01
  HS02004824HS02004830        0.67      0.67      0.70      0.01         0.01
  HS02004830HS02004837        0.60      0.60      0.67      0.01         0.01
  HS02004837HS02004842        0.60      0.60      0.77      0.01         0.01
  HS02004842HS02004848        0.58      0.58      0.77      0.01         0.01
  HS02004848HS02004852        0.58      0.58      0.61      0.01         0.01
  HS02004852HS02004856        0.61      0.61      0.63      0.01         0.01
  HS02004856HS02004862        0.60      0.60      0.64      0.01         0.01
  HS02004862HS02004870        0.64      0.64      0.66      0.26         0.27
  HS02004870HS02004876        0.66      0.66      0.73      0.01         0.01
  HS02004876HS02004881        0.71      0.73      0.71      1.75         0.71
  HS02004881HS02006253        0.71      0.71      1.67      0.01         0.01
  HS02004901HS02004770        0.76      0.76      0.77      0.14         0.01
  WS02003072WS02003073        0.01      0.01      0.01      2.37         0.01
  WS02004401WS02004402        1.79      1.79      1.82      1.68         1.62
  WS02004402WS02004403        1.82      1.82      1.83      1.78         1.78
  WS02004403WS02004404        1.83      1.83      1.92      0.01         0.06
  WS02004404WS02004405        1.91      1.92      1.91      3.43         1.90
  WS02004405WS02004406        1.90      1.91      1.90      1.99         1.89
  WS02004406WS02004407        0.07      0.07      1.90      0.01         0.01
  WS02004407WS02004409        0.07      0.07      1.34      0.01         0.01
  WS02004409WS02004410        1.22      1.34      1.22      1.72         1.22
  WS02004410WS02004411        1.14      1.22      1.14      1.75         1.14
  WS02004411WS02004412        1.04      1.14      1.04      1.77         1.04
  WS02004412WS02004413        1.04      1.04      1.61      0.01         0.01
  WS02004413WS02003067        0.01      0.01      1.61      0.01         0.01
  WS02006109WS02006110        1.96      1.96      2.26      1.96         0.01
  WS02006110WS02006113        1.59      1.59      2.21      0.33         0.01
  WS02006111WS02006112        1.56      1.56      2.36      0.01         0.01
  WS02006112WS02006115        1.73      1.73      2.01      0.01         0.01
  WS02006113WS02006111        1.58      1.59      1.58      1.70         1.58
  WS02006115WS02006116        1.73      1.73      1.73      1.74         1.71
  WS02006116WS02004401        1.78      1.78      1.79      1.78         1.75
  WS02006228WS02006109        2.15      2.26      2.15      2.65         2.15
  WS02006229WS02006228        2.13      2.19      2.13      2.45         2.13
  WS02006230WS02006229        2.34      2.37      2.34      3.20         0.90
  WS02006231WS02006230        1.90      1.90      1.91      2.73         1.41
  WS02006232WS02006231        1.90      1.90      2.14      0.01         0.19
  WS02006234WS02006232        1.93      1.93      2.14      0.01         0.05
  WS02006235WS02006234        1.90      1.91      2.00      2.52         1.35
  WS02006238WS02006235        2.03      2.03      2.12      0.01         0.21
  WS02006239WS02006238        2.04      2.09      2.05      1.37         0.32
  WS02006240WS02006239        1.96      1.99      1.97      1.37         0.28
  WS02006242WS02006240        1.96      1.96      2.15      1.59         1.26
  WS02006243WS02006242        1.96      1.96      2.09      0.01         0.04
  WS02006245WS02006243        1.92      1.93      1.94      0.35         0.25
  WS02006247WS02006245        1.92      1.97      1.92      2.19         0.43
  WS02006248WS02006247        1.91      1.91      1.95      0.01         0.08
  WS02006249WS02006248        1.88      1.89      1.92      0.74         0.01
  WS02006251WS02006249        1.91      1.95      1.92      2.03         1.77
  WS02006252WS02006251        2.14      2.14      2.20      1.72         0.14
  WS02006253WS02006251        1.93      1.93      1.99      1.02         0.02
  WS02006256WS02006235        2.67      2.76      5.95      0.18         0.12
  WS02006280WS02006229        1.04      1.04      1.17      0.01         0.01
  WS02006284WS02006280        0.92      0.92      1.02      0.01         0.01
  WS02006287WS02006284        0.79      0.79      0.94      0.43         0.43
  YS02001580YS02001583        0.67      0.67      0.69      0.01         0.01
  YS02001583YS02001586        0.67      0.67      0.77      0.01         0.01
  YS02001586YS02001590        0.78      0.78      0.85      0.01         0.01
  YS02001590YS02001593        0.85      0.85      0.87      0.98         0.01
  YS02001593YS02001596        0.86      0.86      0.95      0.01         0.01
  YS02001596YS02001600        0.99      0.99      1.12      0.01         0.01
  YS02001600YS02001601        1.19      1.19      1.61      0.01         0.01
  YS02001601YS02001602        1.43      1.43      1.68      1.16         0.01
  YS02001602YS02001605        1.35      1.35      1.43      2.18         0.01
  YS02001605YS02001607        1.30      1.35      1.30      1.54         1.30
  YS02001607YS02001610        0.76      0.76      0.79      0.01         0.01
  YS02001610YS02001613        0.75      0.75      0.79      0.01         0.01
  YS02001613YS02001616        0.70      0.70      0.75      0.01         0.01
  YS02001616YS02001619        0.68      0.68      0.70      0.01         0.01
  YS02001619YS02001622        0.67      0.68      0.67      0.90         0.65
  YS02001622YS02001625        0.67      0.67      0.89      0.01         0.01
  YS02001625YS02001629        0.54      0.54      0.89      0.01         0.01
  YS02001629YS02163301        0.86      0.86      0.87      0.41         0.41
  YS02001633YS02163601        0.89      0.89      0.92      0.57         0.56
  YS02001641YS02001644        0.69      0.76      0.69      1.70         0.68
  YS02001644YS02001647        0.42      0.42      0.69      0.02         0.01
  YS02001647YS02001649        0.42      0.42      0.46      0.01         0.01
  YS02001649YS02001757        0.45      0.46      0.45      0.44         0.34
  YS02001652YS02001649        0.35      0.35      0.46      0.01         0.01
  YS02001655YS02001652        0.24      0.24      0.33      0.01         0.01
  YS02001658YS02001655        0.15      0.15      0.24      0.01         0.01
  YS02001661YS02001658        0.02      0.02      0.15      0.01         0.01
  YS02001664YS02001661        0.01      0.01      0.02      0.01         0.01
  YS02001745YS02001748        0.01      0.01      0.07      0.01         0.01
  YS02001748YS02001751        0.12      0.12      0.16      0.01         0.01
  YS02001751YS02001754        0.16      0.16      0.23      0.01         0.01
  YS02001754YS02001757        0.25      0.25      0.45      0.01         0.01
  YS02001757CaochengTiaoxuchi        0.01      0.45      0.01      0.54         0.01
  YS02001759YS02001757        0.39      0.39      0.45      0.01         0.01
  YS02001762YS02001759        0.37      0.37      0.39      0.01         0.02
  YS02001765YS02001762        0.34      0.34      0.37      0.01         0.01
  YS02001767YS02001765        0.32      0.32      0.34      0.01         0.04
  YS02001770YS02001767        0.32      0.34      0.32      0.60         0.32
  YS02001774YS02001770        0.31      0.31      0.37      0.01         0.01
  YS02001779YS02001774        0.26      0.26      0.37      0.01         0.01
  YS02001783YS02001784        0.52      0.54      0.52      0.67         0.52
  YS02001784YS02001785        0.42      0.52      0.42      0.92         0.42
  YS02001786YS02001788        0.01      0.42      0.01      0.76         0.01
  YS02001790YS02001791        0.01      0.01      0.01      0.51         0.01
  YS02001882YS02001884        0.49      0.49      0.50      0.01         0.01
  YS02001884YS02001887        0.52      0.52      0.54      0.01         0.01
  YS02001887YS02001890        0.55      0.55      0.56      0.11         0.01
  YS02001890YS02001895        0.48      0.48      0.57      0.01         0.01
  YS02001895YS02001898        0.47      0.47      0.48      0.01         0.01
  YS02001898YS02001901        0.48      0.48      0.52      0.01         0.01
  YS02001901YS02001904        0.51      0.51      0.52      0.01         0.01
  YS02001904YS02001907        0.51      0.51      0.74      0.01         0.01
  YS02001907YS02006553        0.92      0.92      1.00      0.01         0.01
  YS02001910YS02001907        0.57      0.57      0.72      0.01         0.01
  YS02001915YS02001910        0.49      0.49      0.57      0.01         0.01
  YS02001918YS02001915        0.40      0.40      0.49      0.01         0.01
  YS02001920YS02001918        0.40      0.40      0.42      0.01         0.01
  YS02001923YS02001920        0.36      0.36      0.42      0.01         0.01
  YS02001926YS02001923        0.03      0.03      0.08      0.01         0.01
  YS02001929YS02001926        0.01      0.01      0.08      0.01         0.01
  YS02006553YS02006556        0.65      0.65      0.74      0.01         0.01
  YS02006556YS02006558        0.69      0.69      0.76      0.01         0.01
  YS02006558YS02006561        0.44      0.64      0.44      0.86         0.44
  YS02006561YS02001783        0.37      0.37      0.54      0.01         0.01
  YS02163301YS02001633        0.87      0.87      0.92      0.01         0.02
  YS02163601YS02164001        0.79      0.79      0.92      0.34         0.01
  YS02164001YS02001641        0.76      0.79      0.76      0.83         0.61
  YSB1154YSB6556              0.97      0.97      1.16      0.03         0.01
  YSB1171HS02004479           0.83      0.83      1.16      0.01         0.01
  YSB1174YSB1171              1.07      1.07      1.41      0.01         0.01
  YSB6556YSB1171              0.97      0.97      1.59      0.01         0.01
  
  
  ***************
  Pumping Summary
  ***************
  
  ---------------------------------------------------------------------------------------------------------
                                                  Min       Avg       Max     Total     Power    % Time Off
                        Percent   Number of      Flow      Flow      Flow    Volume     Usage    Pump Curve
  Pump                 Utilized   Start-Ups       LPS       LPS       LPS  10^6 ltr     Kw-hr    Low   High
  ---------------------------------------------------------------------------------------------------------
  CC-R1                   26.54           4      0.00    683.00    683.00     5.221     86.15    0.0  100.0
  CC-R2                   26.54           4      0.00    683.00    683.00     5.221     86.15    0.0  100.0
  CC-S1                   26.54           4      0.00    200.00    200.00     1.529     13.35    0.0   25.0
  CC-S2                   26.54           4      0.00    200.00    200.00     1.529     13.35    0.0   25.0
  JK-R1                    7.57         377      0.00    993.03   1000.00     2.156      5.28    0.0    0.0
  JK-R2                    7.57         377      0.00    993.03   1000.00     2.156      5.28    0.0    0.0
  JK-S                     7.57         377      0.00    299.97    300.00     0.654     14.91    0.0    0.0
  XR-1                    97.91           2      0.00     95.00     95.00     2.679      9.63    0.0    0.0
  XR-2                    93.94           2      0.00     95.00     95.00     2.570      8.78    0.0    0.0
  XR-3                     0.00           1      0.00     95.00     95.00     0.000      0.00    0.0    0.0
  XR-4                     0.00           1      0.00     95.00     95.00     0.000      0.00    0.0    0.0
  

  Analysis begun on:  Thu Jul 20 17:14:39 2023
  Analysis ended on:  Thu Jul 20 17:15:01 2023
  Total elapsed time: 00:00:22