
  OWA STORM WATER MANAGEMENT MODEL - VERSION v5.1.14 (OWA 2022-07-31)
  --------------------------------------------------------------

  WARNING 04: minimum elevation drop used for Conduit WS02004404WS02004405
  WARNING 03: negative offset ignored for Link YS02001904YS02001907
  
  *********************************************************
  NOTE: The summary statistics displayed in this report are
  based on results found at every computational time step,  
  not just on results from each reporting time step.
  *********************************************************
  
  ****************
  Analysis Options
  ****************
  Flow Units ............... LPS
  Process Models:
    Rainfall/Runoff ........ YES
    RDII ................... NO
    Snowmelt ............... NO
    Groundwater ............ NO
    Flow Routing ........... YES
    Ponding Allowed ........ NO
    Water Quality .......... NO
  Infiltration Method ...... HORTON
  Flow Routing Method ...... DYNWAVE
  Surcharge Method ......... EXTRAN
  Starting Date ............ 08/28/2015 08:00:00
  Ending Date .............. 08/28/2015 16:00:00
  Antecedent Dry Days ...... 8.0
  Report Time Step ......... 00:01:00
  Wet Time Step ............ 00:01:00
  Dry Time Step ............ 00:01:00
  Routing Time Step ........ 30.00 sec
  Variable Time Step ....... YES
  Maximum Trials ........... 8
  Number of Threads ........ 4
  Head Tolerance ........... 0.001500 m
  
  
  **************************        Volume         Depth
  Runoff Quantity Continuity     hectare-m            mm
  **************************     ---------       -------
  Initial LID Storage ......         0.072         1.184
  Total Precipitation ......         8.656       142.891
  Evaporation Loss .........         0.000         0.000
  Infiltration Loss ........         0.218         3.594
  Surface Runoff ...........         7.091       117.056
  Final Storage ............         1.421        23.450
  Continuity Error (%) .....        -0.017
  
  
  **************************        Volume        Volume
  Flow Routing Continuity        hectare-m      10^6 ltr
  **************************     ---------     ---------
  Dry Weather Inflow .......         0.630         6.296
  Wet Weather Inflow .......         7.091        70.907
  Groundwater Inflow .......         0.000         0.000
  RDII Inflow ..............         0.000         0.000
  External Inflow ..........         0.105         1.045
  External Outflow .........         3.513        35.127
  Flooding Loss ............         4.467        44.674
  Evaporation Loss .........         0.000         0.000
  Exfiltration Loss ........         0.000         0.000
  Initial Stored Volume ....         0.303         3.031
  Final Stored Volume ......         0.199         1.988
  Continuity Error (%) .....        -0.628
  
  
  *************************
  Highest Continuity Errors
  *************************
  Node JK-storage (-9.22%)
  Node WS02006256 (6.07%)
  Node YS02001884 (4.98%)
  Node YS02001583 (-3.56%)
  
  
  ***************************
  Time-Step Critical Elements
  ***************************
  Link WS02006280WS02006229 (41.51%)
  Link YS02001793JiankangQianchi (25.53%)
  Link WS02006238WS02006235 (9.56%)
  Link WS02004404WS02004405 (4.35%)
  Link WS02003066WSF200 (3.23%)
  
  
  ********************************
  Highest Flow Instability Indexes
  ********************************
  Link WS02004404WS02004405 (44)
  Link WS02006229WS02006228 (41)
  Link WS02004403WS02004404 (38)
  Link WS02006252WS02006251 (38)
  Link WS02006280WS02006229 (32)
  
  
  *************************
  Routing Time Step Summary
  *************************
  Minimum Time Step           :     0.00 sec
  Average Time Step           :     2.27 sec
  Maximum Time Step           :     6.46 sec
  Percent in Steady State     :     0.00
  Average Iterations per Step :     4.98
  Percent Not Converging      :    37.61
  
  
  ***************************
  Subcatchment Runoff Summary
  ***************************
  
  ------------------------------------------------------------------------------------------------------------------------------
                            Total      Total      Total      Total     Imperv       Perv      Total       Total     Peak  Runoff
                           Precip      Runon       Evap      Infil     Runoff     Runoff     Runoff      Runoff   Runoff   Coeff
  Subcatchment                 mm         mm         mm         mm         mm         mm         mm    10^6 ltr      LPS
  ------------------------------------------------------------------------------------------------------------------------------
  sub0                     142.89       0.00       0.00       1.05     131.66       8.96     140.62        0.11    78.18   0.984
  sub1                     142.89       0.00       0.00       1.61     112.88      12.48     126.94        0.84   509.69   0.888
  sub2                     142.89       0.00       0.00       7.34      82.53      41.62     125.28        1.17   594.37   0.877
  sub3                     142.89       0.00       0.00       7.91      81.77      40.61     123.64        2.78  1308.28   0.865
  sub4                     142.89       0.00       0.00       1.76     111.33      12.15     125.23        2.61  1351.50   0.876
  sub5                     142.89       0.00       0.00       0.91     109.20       7.39     119.18        1.35   814.52   0.834
  sub7                     142.89       0.00       0.00       1.07      99.77       8.89     112.09        0.38   242.69   0.784
  sub8                     142.89       0.00       0.00       1.05      96.96       8.63     109.35        0.70   438.95   0.765
  sub9                     142.89       0.00       0.00       1.02      94.00       8.37     106.47        0.51   319.93   0.745
  sub10                    142.89       0.00       0.00       1.02     105.77       8.27     116.90        1.29   787.99   0.818
  sub11                    142.89       0.00       0.00       0.93      98.29       7.70     109.72        1.27   806.82   0.768
  sub12                    142.89       0.00       0.00       1.63      99.91      13.44     116.23        1.02   675.36   0.813
  sub14                    142.89       0.00       0.00       1.01      93.09       8.28     105.59        1.01   625.35   0.739
  sub15                    142.89       0.00       0.00       4.63      83.69      31.59     117.64        2.02  1179.43   0.823
  sub16                    142.89       0.00       0.00       4.91      81.62      35.67     119.41        1.25   778.08   0.836
  sub17                    142.89       0.00       0.00       5.26      90.09      37.54     128.60        1.10   680.24   0.900
  sub22                    142.89       0.00       0.00       8.22      78.12      51.29     129.90        8.21  4542.57   0.909
  sub23                    142.89       0.00       0.00       6.17      80.44      41.53     123.46        5.89  3439.91   0.864
  sub60                    142.89       0.00       0.00       1.46      96.13      11.78     111.38        1.46   933.17   0.779
  sub61                    142.89       0.00       0.00       2.24      96.04      17.62     116.44        2.14  1368.07   0.815
  sub62                    142.89       0.00       0.00       0.99     102.41       8.00     113.66        3.11  1885.60   0.795
  sub63                    142.89       0.00       0.00       4.12      82.26      29.81     114.83        2.61  1593.88   0.804
  sub64                    142.89       0.00       0.00       1.98      93.69      14.72     111.78        2.69  1577.40   0.782
  sub65                    142.89       0.00       0.00       1.81     101.14      13.45     117.31        3.23  1864.96   0.821
  sub66                    142.89       0.00       0.00       4.83      79.62      28.03     110.80        5.17  2737.05   0.775
  sub67                    142.89       0.00       0.00       0.98     104.96       8.24     116.15        2.16  1426.66   0.813
  sub68                    142.89       0.00       0.00       1.72      92.71      13.52     109.86        3.02  1874.96   0.769
  sub69                    142.89       0.00       0.00       1.61      96.17      15.38     114.71        4.25  2409.70   0.803
  sub70                    142.89       0.00       0.00       5.43      77.10      34.35     114.21        3.30  1619.26   0.799
  sub71                    142.89       0.00       0.00       0.92      93.05       7.26     104.64        2.74  1584.02   0.732
  sub72                    142.89       0.00       0.00       0.87     100.55       6.77     110.91        1.52   852.79   0.776
  

  ***********************
  LID Performance Summary
  ***********************

  --------------------------------------------------------------------------------------------------------------------
                                         Total      Evap     Infil   Surface    Drain    Initial     Final  Continuity
                                        Inflow      Loss      Loss   Outflow   Outflow   Storage   Storage       Error
  Subcatchment      LID Control             mm        mm        mm        mm        mm        mm        mm           %
  --------------------------------------------------------------------------------------------------------------------
  sub1              GreenRoof           142.89      0.00      0.00     15.22      0.00      7.05    134.72       -0.00
  sub2              GreenRoof           142.89      0.00      0.00     15.22      0.00      7.05    134.72       -0.00
  sub3              GreenRoof           142.89      0.00      0.00     15.22      0.00      7.05    134.72       -0.00
  sub4              GreenRoof           142.89      0.00      0.00     15.22      0.00      7.05    134.72       -0.00
  sub5              GreenRoof           142.89      0.00      0.00     15.22      0.00      7.05    134.72       -0.00
  sub7              GreenRoof           142.89      0.00      0.00     15.22      0.00      7.05    134.72       -0.00
  sub8              GreenRoof           142.89      0.00      0.00     15.22      0.00      7.05    134.72       -0.00
  sub9              GreenRoof           142.89      0.00      0.00     15.22      0.00      7.05    134.72       -0.00
  sub10             GreenRoof           142.89      0.00      0.00     15.22      0.00      7.05    134.72       -0.00
  sub11             GreenRoof           142.89      0.00      0.00     15.22      0.00      7.05    134.72       -0.00
  sub12             GreenRoof           142.89      0.00      0.00     15.22      0.00      7.05    134.72       -0.00
  sub14             GreenRoof           142.89      0.00      0.00     15.22      0.00      7.05    134.72       -0.00
  sub15             GreenRoof           142.89      0.00      0.00     15.22      0.00      7.05    134.72       -0.00
  sub16             GreenRoof           142.89      0.00      0.00     15.22      0.00      7.05    134.72       -0.00
  sub17             GreenRoof           142.89      0.00      0.00     15.22      0.00      7.05    134.72       -0.00
  sub22             GreenRoof           142.89      0.00      0.00     15.22      0.00      7.05    134.72       -0.00
  sub23             GreenRoof           142.89      0.00      0.00     15.22      0.00      7.05    134.72       -0.00
  sub60             GreenRoof           142.89      0.00      0.00     15.22      0.00      7.05    134.72       -0.00
  sub61             GreenRoof           142.89      0.00      0.00     15.22      0.00      7.05    134.72       -0.00
  sub62             GreenRoof           142.89      0.00      0.00     15.22      0.00      7.05    134.72       -0.00
  sub63             GreenRoof           142.89      0.00      0.00     15.22      0.00      7.05    134.72       -0.00
  sub64             GreenRoof           142.89      0.00      0.00     15.22      0.00      7.05    134.72       -0.00
  sub65             GreenRoof           142.89      0.00      0.00     15.22      0.00      7.05    134.72       -0.00
  sub66             GreenRoof           142.89      0.00      0.00     15.22      0.00      7.05    134.72       -0.00
  sub67             GreenRoof           142.89      0.00      0.00     15.22      0.00      7.05    134.72       -0.00
  sub68             GreenRoof           142.89      0.00      0.00     15.22      0.00      7.05    134.72       -0.00
  sub69             GreenRoof           142.89      0.00      0.00     15.22      0.00      7.05    134.72       -0.00
  sub70             GreenRoof           142.89      0.00      0.00     15.22      0.00      7.05    134.72       -0.00
  sub71             GreenRoof           142.89      0.00      0.00     15.22      0.00      7.05    134.72       -0.00
  sub72             GreenRoof           142.89      0.00      0.00     15.22      0.00      7.05    134.72       -0.00
  
  ******************
  Node Depth Summary
  ******************
  
  ---------------------------------------------------------------------------------
                                 Average  Maximum  Maximum  Time of Max    Reported
                                   Depth    Depth      HGL   Occurrence   Max Depth
  Node                 Type       Meters   Meters   Meters  days hr:min      Meters
  ---------------------------------------------------------------------------------
  HS02004478           JUNCTION     0.45     1.86    11.09     0  01:53        1.86
  HS02004479           JUNCTION     0.54     1.71    10.91     0  01:45        1.69
  HS02004480           JUNCTION     0.51     1.79    11.04     0  01:52        1.79
  HS02004770           JUNCTION     0.48     1.42    11.25     0  01:42        1.42
  HS02004777           JUNCTION     0.50     1.48    11.28     0  01:42        1.48
  HS02004785           JUNCTION     0.39     1.49    11.39     0  01:42        1.49
  HS02004788           JUNCTION     0.36     1.42    11.32     0  01:42        1.42
  HS02004792           JUNCTION     0.47     1.60    11.12     0  01:42        1.60
  HS02004799           JUNCTION     0.59     1.76    10.97     0  01:45        1.76
  HS02004802           JUNCTION     0.56     1.87    10.99     0  01:52        1.87
  HS02004807           JUNCTION     0.55     1.92    11.09     0  01:45        1.92
  HS02004817           JUNCTION     0.86     2.44    11.29     0  01:52        2.44
  HS02004824           JUNCTION     0.43     2.01    11.41     0  01:45        2.01
  HS02004830           JUNCTION     0.42     2.03    11.50     0  01:45        2.03
  HS02004837           JUNCTION     0.38     2.04    11.62     0  01:51        2.04
  HS02004842           JUNCTION     0.66     2.22    11.49     0  01:45        2.22
  HS02004848           JUNCTION     0.36     2.07    11.67     0  01:45        2.07
  HS02004852           JUNCTION     0.37     2.12    11.63     0  01:52        2.12
  HS02004856           JUNCTION     0.42     2.07    11.50     0  01:51        2.07
  HS02004862           JUNCTION     0.39     2.00    11.38     0  01:44        2.00
  HS02004870           JUNCTION     0.38     2.10    11.39     0  01:51        2.10
  HS02004876           JUNCTION     0.45     2.26    11.29     0  01:51        2.26
  HS02004881           JUNCTION     0.36     2.15    11.18     0  01:53        2.15
  HS02004901           JUNCTION     0.48     1.42    11.24     0  01:42        1.42
  WS02001211           JUNCTION     0.66     0.84     5.68     0  02:05        0.84
  WS02001212           JUNCTION     0.41     0.60     5.67     0  02:06        0.60
  WS02001213           JUNCTION     0.64     0.90     5.66     0  02:06        0.90
  WS02003059           JUNCTION     0.70     0.97     5.66     0  02:05        0.97
  WS02003060           JUNCTION     0.44     0.72     5.65     0  02:05        0.72
  WS02003066           JUNCTION     0.27     0.47     6.03     0  02:05        0.47
  WS02003067           JUNCTION     0.60     0.91     6.23     0  01:59        0.90
  WS02003069           JUNCTION     0.49     0.81     5.40     0  02:05        0.81
  WS02003072           JUNCTION     0.54     0.84     5.21     0  02:06        0.84
  WS02003073           JUNCTION     0.33     0.54     4.60     0  02:06        0.54
  WS02004138           JUNCTION     0.13     0.14     7.39     0  00:32        0.14
  WS02004139           JUNCTION     0.60     0.77     5.68     0  02:04        0.77
  WS02004401           JUNCTION     0.99     2.66     8.66     0  01:28        2.66
  WS02004402           JUNCTION     0.99     2.74     8.70     0  01:28        2.74
  WS02004403           JUNCTION     0.97     2.95     8.88     0  01:28        2.95
  WS02004404           JUNCTION     1.02     2.80     8.65     0  01:28        2.80
  WS02004405           JUNCTION     1.00     2.44     8.29     0  01:28        2.44
  WS02004406           JUNCTION     0.97     1.88     7.71     0  01:28        1.76
  WS02004407           JUNCTION     0.39     1.09     7.40     0  01:59        1.08
  WS02004409           JUNCTION     0.70     1.51     7.28     0  02:00        1.51
  WS02004410           JUNCTION     0.69     1.39     7.11     0  01:51        1.39
  WS02004411           JUNCTION     0.67     1.28     6.96     0  02:00        1.28
  WS02004412           JUNCTION     0.65     1.15     6.79     0  01:59        1.15
  WS02004413           JUNCTION     0.76     1.17     6.64     0  02:01        1.17
  WS02006109           JUNCTION     1.34     2.64     9.26     0  01:42        2.64
  WS02006110           JUNCTION     1.23     2.55     9.13     0  01:51        2.55
  WS02006111           JUNCTION     0.69     2.03     8.74     0  01:53        2.02
  WS02006112           JUNCTION     1.26     2.68     8.56     0  01:28        2.68
  WS02006113           JUNCTION     0.78     2.10     8.99     0  01:51        2.10
  WS02006115           JUNCTION     0.95     3.23     9.37     0  01:28        3.23
  WS02006116           JUNCTION     1.00     3.28     9.32     0  01:28        3.28
  WS02006228           JUNCTION     1.46     3.03     9.68     0  01:45        3.03
  WS02006229           JUNCTION     1.50     3.25     9.94     0  01:53        3.24
  WS02006230           JUNCTION     1.35     2.65     9.39     0  01:37        2.65
  WS02006231           JUNCTION     1.03     2.24     9.36     0  01:52        2.24
  WS02006232           JUNCTION     1.10     2.18     9.22     0  01:28        2.18
  WS02006234           JUNCTION     0.97     1.96     9.12     0  01:28        1.96
  WS02006235           JUNCTION     0.97     2.00     9.16     0  01:28        2.00
  WS02006238           JUNCTION     0.98     2.15     9.29     0  01:28        2.15
  WS02006239           JUNCTION     0.91     2.03     9.24     0  01:28        2.03
  WS02006240           JUNCTION     0.84     2.10     9.39     0  01:26        2.10
  WS02006242           JUNCTION     0.86     1.55     8.82     0  01:26        1.55
  WS02006243           JUNCTION     0.74     1.48     8.90     0  01:26        1.48
  WS02006245           JUNCTION     0.71     1.56     9.04     0  01:26        1.56
  WS02006247           JUNCTION     0.70     1.47     8.97     0  01:26        1.47
  WS02006248           JUNCTION     0.64     1.10     8.69     0  01:26        1.10
  WS02006249           JUNCTION     0.65     1.09     8.69     0  01:26        1.09
  WS02006251           JUNCTION     0.93     2.21     9.88     0  01:33        2.21
  WS02006252           JUNCTION     0.65     1.50     9.74     0  00:00        1.50
  WS02006253           JUNCTION     1.12     3.52    11.16     0  01:53        3.52
  WS02006256           JUNCTION     1.21     2.35     9.28     0  00:00        2.35
  WS02006280           JUNCTION     0.58     1.78    10.05     0  01:53        1.75
  WS02006284           JUNCTION     0.80     2.08    10.48     0  01:53        2.08
  WS02006287           JUNCTION     0.54     1.89    10.84     0  01:52        1.89
  WSF200               JUNCTION     0.28     0.55     5.78     0  02:04        0.55
  YS02001580           JUNCTION     0.21     1.05     9.59     0  01:41        0.77
  YS02001583           JUNCTION     0.24     1.14     9.64     0  01:41        0.87
  YS02001586           JUNCTION     0.37     1.13     9.30     0  01:41        1.13
  YS02001590           JUNCTION     0.49     1.40     9.26     0  01:41        1.40
  YS02001593           JUNCTION     0.42     1.33     9.20     0  01:51        1.29
  YS02001596           JUNCTION     0.57     1.69     9.11     0  01:41        1.65
  YS02001600           JUNCTION     0.67     1.87     9.00     0  01:41        1.87
  YS02001601           JUNCTION     0.86     2.06     8.90     0  01:40        2.06
  YS02001602           JUNCTION     0.75     1.87     8.77     0  01:45        1.87
  YS02001605           JUNCTION     0.69     1.78     8.68     0  01:51        1.78
  YS02001607           JUNCTION     0.64     1.68     8.53     0  01:51        1.68
  YS02001610           JUNCTION     0.68     1.68     8.48     0  01:47        1.68
  YS02001613           JUNCTION     0.65     1.68     8.52     0  01:53        1.67
  YS02001616           JUNCTION     0.58     1.61     8.52     0  01:51        1.61
  YS02001619           JUNCTION     0.56     1.61     8.54     0  01:51        1.61
  YS02001622           JUNCTION     0.55     1.62     8.52     0  01:52        1.62
  YS02001625           JUNCTION     0.79     1.78     8.38     0  01:47        1.78
  YS02001629           JUNCTION     0.70     1.85     8.40     0  01:50        1.85
  YS02001633           JUNCTION     0.77     2.08     8.53     0  01:51        2.08
  YS02001641           JUNCTION     0.72     2.10     8.54     0  01:51        2.10
  YS02001644           JUNCTION     0.71     1.92     8.35     0  01:51        1.92
  YS02001647           JUNCTION     0.50     1.82     8.43     0  01:52        1.82
  YS02001649           JUNCTION     0.56     2.05     8.44     0  01:59        2.05
  YS02001652           JUNCTION     0.44     2.04     8.63     0  02:00        2.04
  YS02001655           JUNCTION     0.35     1.96     8.81     0  02:00        1.96
  YS02001658           JUNCTION     0.26     1.80     8.94     0  02:00        1.80
  YS02001661           JUNCTION     0.25     1.63     9.04     0  02:00        1.63
  YS02001664           JUNCTION     0.12     1.22     9.15     0  02:00        1.20
  YS02001745           JUNCTION     0.13     1.07     8.59     0  02:00        1.01
  YS02001748           JUNCTION     0.23     1.46     8.53     0  02:00        1.41
  YS02001751           JUNCTION     0.29     1.78     8.66     0  01:51        1.56
  YS02001754           JUNCTION     0.39     1.96     8.57     0  01:50        1.80
  YS02001757           JUNCTION     0.57     2.14     8.40     0  02:00        2.14
  YS02001759           JUNCTION     0.52     2.21     8.57     0  01:52        2.21
  YS02001762           JUNCTION     0.51     2.15     8.55     0  01:52        2.15
  YS02001765           JUNCTION     0.48     2.10     8.55     0  01:52        2.10
  YS02001767           JUNCTION     0.48     2.03     8.52     0  01:52        2.03
  YS02001770           JUNCTION     0.49     1.95     8.44     0  01:52        1.95
  YS02001774           JUNCTION     0.55     2.05     8.47     0  01:52        2.05
  YS02001779           JUNCTION     0.37     1.68     8.37     0  01:48        1.68
  YS02001783           JUNCTION     0.39     1.30     7.44     0  02:00        1.28
  YS02001784           JUNCTION     0.38     1.16     7.23     0  01:51        1.16
  YS02001786           JUNCTION     0.32     0.90     6.93     0  02:00        0.88
  YS02001788           JUNCTION     0.23     0.63     6.61     0  01:59        0.62
  YS02001790           JUNCTION     0.27     0.73     6.37     0  01:59        0.72
  YS02001791           JUNCTION     0.16     0.44     5.91     0  02:04        0.43
  YS02001793           JUNCTION     0.09     0.26     5.09     0  02:08        0.26
  YS02001882           JUNCTION     0.49     1.79     8.51     0  02:00        1.79
  YS02001884           JUNCTION     0.57     1.93     8.55     0  01:53        1.93
  YS02001887           JUNCTION     0.65     2.00     8.54     0  01:51        2.00
  YS02001890           JUNCTION     0.67     1.81     8.32     0  01:48        1.81
  YS02001895           JUNCTION     0.45     1.61     8.36     0  01:53        1.59
  YS02001898           JUNCTION     0.46     1.69     8.43     0  01:52        1.69
  YS02001901           JUNCTION     0.56     1.75     8.36     0  01:53        1.70
  YS02001904           JUNCTION     0.54     1.83     8.46     0  01:51        1.83
  YS02001907           JUNCTION     0.85     1.96     8.25     0  01:47        1.96
  YS02001910           JUNCTION     0.67     2.01     8.52     0  02:06        2.01
  YS02001915           JUNCTION     0.51     2.00     8.72     0  01:51        2.00
  YS02001918           JUNCTION     0.33     1.81     8.88     0  01:49        1.74
  YS02001920           JUNCTION     0.41     2.07     9.08     0  01:49        1.84
  YS02001923           JUNCTION     0.27     1.96     9.22     0  01:49        1.63
  YS02001926           JUNCTION     0.28     1.85     9.30     0  01:49        1.49
  YS02001929           JUNCTION     0.18     1.72     9.42     0  01:49        1.29
  YS02006553           JUNCTION     0.85     2.19     8.47     0  01:51        2.19
  YS02006556           JUNCTION     0.82     2.27     8.59     0  01:53        2.27
  YS02006558           JUNCTION     0.87     2.50     8.77     0  01:53        2.50
  YS02006561           JUNCTION     0.25     1.00     7.66     0  01:48        0.93
  YS02163301           JUNCTION     0.72     2.03     8.55     0  01:53        2.03
  YS02163601           JUNCTION     0.79     2.08     8.48     0  01:53        2.08
  YS02164001           JUNCTION     0.72     2.08     8.54     0  01:52        2.08
  YSB1154              JUNCTION     0.69     2.10    11.16     0  01:51        2.10
  YSB1171              JUNCTION     0.81     1.95    10.85     0  01:45        1.95
  YSB1174              JUNCTION     0.63     1.95    11.06     0  01:51        1.95
  YSB6556              JUNCTION     0.58     1.80    10.97     0  01:51        1.80
  CC-1                 OUTFALL      0.00     0.00     0.00     0  00:00        0.00
  CC-2                 OUTFALL      0.00     0.00     0.00     0  00:00        0.00
  JK-1                 OUTFALL      0.00     0.00     0.00     0  00:00        0.00
  JK-2                 OUTFALL      0.00     0.00     0.00     0  00:00        0.00
  WSC                  OUTFALL      0.33     0.54     1.21     0  02:07        0.54
  CC-storage           STORAGE      0.50     1.49     6.99     0  02:44        1.49
  JK-storage           STORAGE      0.05     2.99     3.79     0  00:00        0.68
  XR-storage           STORAGE      7.76     9.26     7.26     0  08:00        9.26
  
  
  *******************
  Node Inflow Summary
  *******************
  
  -------------------------------------------------------------------------------------------------
                                  Maximum  Maximum                  Lateral       Total        Flow
                                  Lateral    Total  Time of Max      Inflow      Inflow     Balance
                                   Inflow   Inflow   Occurrence      Volume      Volume       Error
  Node                 Type           LPS      LPS  days hr:min    10^6 ltr    10^6 ltr     Percent
  -------------------------------------------------------------------------------------------------
  HS02004478           JUNCTION      0.00  2303.44     0  01:54           0        12.5      -0.002
  HS02004479           JUNCTION      0.00   380.43     0  01:47           0         1.2       0.074
  HS02004480           JUNCTION      0.00  2046.17     0  01:45           0         9.1       0.016
  HS02004770           JUNCTION   3439.91  3650.31     0  02:02        5.89        6.21       0.047
  HS02004777           JUNCTION      0.03   680.30     0  01:41    0.000864        2.37       0.219
  HS02004785           JUNCTION      0.15   694.43     0  01:41     0.00432        2.37       0.014
  HS02004788           JUNCTION   1181.10  1181.10     0  02:02        2.07        4.36       0.007
  HS02004792           JUNCTION   4542.85  5514.03     0  02:02        8.21        12.5       0.003
  HS02004799           JUNCTION    625.35  1767.44     0  02:01        1.01        8.59       0.039
  HS02004802           JUNCTION      0.00  1233.61     0  02:00           0        3.76       0.105
  HS02004807           JUNCTION    806.82  2003.37     0  02:01        1.27         4.4       0.096
  HS02004817           JUNCTION      0.60  1196.87     0  02:09      0.0173        3.18       0.532
  HS02004824           JUNCTION   1351.55  1945.16     0  02:02        2.61        3.93       0.011
  HS02004830           JUNCTION      0.15   619.52     0  02:01     0.00432        1.58       0.069
  HS02004837           JUNCTION    794.34   794.34     0  02:01        1.47        2.02       0.036
  HS02004842           JUNCTION      0.00   901.84     0  02:02           0        1.47       0.885
  HS02004848           JUNCTION   1308.28  1308.28     0  02:03        2.78        3.48      -0.010
  HS02004852           JUNCTION      0.00   941.37     0  01:45           0        2.78      -0.008
  HS02004856           JUNCTION    319.93   975.71     0  01:45       0.512        3.29       0.055
  HS02004862           JUNCTION    594.57  1486.80     0  02:02        1.17        4.46      -0.002
  HS02004870           JUNCTION    438.95  1280.47     0  02:13       0.699        4.68      -0.001
  HS02004876           JUNCTION    509.69  1523.98     0  02:11       0.844        5.53       0.012
  HS02004881           JUNCTION    242.69  1712.00     0  02:01       0.378         5.9       0.010
  HS02004901           JUNCTION    778.08  1043.86     0  02:01        1.25        1.99       0.089
  WS02001211           JUNCTION      7.35   228.15     0  01:34       0.212        5.44       0.611
  WS02001212           JUNCTION      0.00   214.67     0  03:07           0        5.41       0.273
  WS02001213           JUNCTION      0.00   219.97     0  03:07           0        5.39       0.347
  WS02003059           JUNCTION      0.00   225.92     0  03:07           0        5.39       0.596
  WS02003060           JUNCTION     16.53  1613.71     0  02:04       0.476        16.3       0.089
  WS02003066           JUNCTION      0.00  1401.03     0  01:59           0        10.5       0.015
  WS02003067           JUNCTION      0.00  1399.81     0  02:03           0        10.5       0.041
  WS02003069           JUNCTION      0.32  1613.47     0  02:05     0.00922        16.3       0.095
  WS02003072           JUNCTION      0.00  1613.34     0  02:06           0        16.3       0.128
  WS02003073           JUNCTION      1.82  1615.31     0  02:06      0.0524        16.3       0.132
  WS02004138           JUNCTION      0.00   380.00     0  00:00           0        5.25       0.053
  WS02004139           JUNCTION      0.32   190.32     0  00:32     0.00924        5.26       0.508
  WS02004401           JUNCTION      0.00  1399.78     0  02:05           0        10.6       0.100
  WS02004402           JUNCTION      0.00  1399.81     0  02:04           0        10.6       0.102
  WS02004403           JUNCTION      0.00  1399.87     0  02:01           0        10.6       0.096
  WS02004404           JUNCTION      0.16  1400.27     0  02:03     0.00467        10.6       0.084
  WS02004405           JUNCTION      0.04  1400.77     0  02:04      0.0011        10.6       0.117
  WS02004406           JUNCTION      0.00  1400.14     0  02:04           0        10.5       0.204
  WS02004407           JUNCTION      0.00  1400.06     0  02:04           0        10.5       0.013
  WS02004409           JUNCTION      0.00  1399.89     0  02:03           0        10.5       0.029
  WS02004410           JUNCTION      0.00  1399.93     0  02:03           0        10.5       0.047
  WS02004411           JUNCTION      0.00  1399.96     0  02:03           0        10.5       0.058
  WS02004412           JUNCTION      0.00  1399.85     0  02:02           0        10.5       0.075
  WS02004413           JUNCTION      0.00  1399.73     0  02:02           0        10.5       0.136
  WS02006109           JUNCTION      1.23  1288.62     0  01:54      0.0354        10.3       0.083
  WS02006110           JUNCTION      0.00  1122.71     0  02:34           0        9.55       0.081
  WS02006111           JUNCTION      0.00  1122.78     0  02:34           0        9.54       0.008
  WS02006112           JUNCTION    680.24  1517.62     0  02:01         1.1        10.6       0.197
  WS02006113           JUNCTION      0.00  1122.69     0  02:34           0        9.54       0.026
  WS02006115           JUNCTION      0.00  1399.76     0  02:01           0        10.6       0.071
  WS02006116           JUNCTION      0.00  1400.00     0  02:03           0        10.6       0.033
  WS02006228           JUNCTION      0.00  1287.86     0  02:08           0        10.2       0.021
  WS02006229           JUNCTION      0.00  2303.97     0  01:54           0        14.5       0.055
  WS02006230           JUNCTION     10.28  1026.22     0  01:54       0.296         6.4       0.147
  WS02006231           JUNCTION      0.00   471.75     0  01:51           0        4.27      -0.102
  WS02006232           JUNCTION      0.00   468.72     0  01:51           0        4.24       0.120
  WS02006234           JUNCTION      0.00   461.51     0  01:51           0        4.21      -0.105
  WS02006235           JUNCTION      0.00   483.40     0  03:49           0        4.02       0.105
  WS02006238           JUNCTION      0.00   432.31     0  01:51           0        3.93      -0.048
  WS02006239           JUNCTION      0.00   421.47     0  03:49           0        3.88      -0.068
  WS02006240           JUNCTION      0.00   423.72     0  03:49           0        3.85      -0.000
  WS02006242           JUNCTION      0.00   425.02     0  03:49           0        3.84       0.010
  WS02006243           JUNCTION      0.00   425.89     0  03:49           0        3.23      -0.079
  WS02006245           JUNCTION      0.00   426.37     0  03:49           0        3.23       0.235
  WS02006247           JUNCTION      0.00   426.57     0  03:49           0        3.22       0.017
  WS02006248           JUNCTION      0.00   427.11     0  03:49           0        3.59       0.016
  WS02006249           JUNCTION      0.00  1399.86     0  02:01           0        8.53       0.036
  WS02006251           JUNCTION      0.08  1790.62     0  02:01     0.00222           9      -0.019
  WS02006252           JUNCTION      0.00   791.34     0  02:01           0        4.39      -0.033
  WS02006253           JUNCTION     78.18  1789.97     0  02:01       0.114        6.03      -0.000
  WS02006256           JUNCTION      0.00   300.00     0  00:00           0       0.824       6.463
  WS02006280           JUNCTION      0.00  2303.69     0  01:54           0        12.5       0.009
  WS02006284           JUNCTION      0.10  2303.06     0  01:54     0.00275        12.5       0.002
  WS02006287           JUNCTION      0.00  2304.94     0  01:53           0        12.5       0.008
  WSF200               JUNCTION      0.00  1400.92     0  02:00           0        10.5       0.005
  YS02001580           JUNCTION      0.00    71.41     0  01:40           0     0.00401      -0.296
  YS02001583           JUNCTION      0.00   113.09     0  01:40           0      0.0155      -3.438
  YS02001586           JUNCTION   1619.26  1619.26     0  02:05         3.3        3.31       0.031
  YS02001590           JUNCTION      0.00   322.15     0  01:51           0        1.81      -0.026
  YS02001593           JUNCTION      0.00   322.56     0  01:53           0        1.81       0.010
  YS02001596           JUNCTION      0.00   317.95     0  02:16           0        1.81       0.002
  YS02001600           JUNCTION      0.00   318.10     0  01:53           0        1.81       0.017
  YS02001601           JUNCTION   2409.70  2727.21     0  02:02        4.25        6.06       0.014
  YS02001602           JUNCTION      0.00   491.77     0  01:40           0        2.86       0.016
  YS02001605           JUNCTION      0.00   491.95     0  01:40           0        2.67       0.019
  YS02001607           JUNCTION      0.00   492.49     0  01:40           0        2.67       0.069
  YS02001610           JUNCTION      0.00   955.17     0  02:08           0        3.52       0.068
  YS02001613           JUNCTION      0.00   618.59     0  02:08           0        2.69       0.059
  YS02001616           JUNCTION      0.00   618.83     0  02:07           0        2.69       0.015
  YS02001619           JUNCTION   2737.05  2737.05     0  02:05        5.17        7.01      -0.001
  YS02001622           JUNCTION      0.00  1053.73     0  02:05           0        5.63      -0.000
  YS02001625           JUNCTION      0.00  1505.33     0  02:11           0        6.19       0.150
  YS02001629           JUNCTION      0.00  1027.71     0  02:02           0        4.64       0.017
  YS02001633           JUNCTION   1865.16  1865.16     0  02:02        3.24           7       0.049
  YS02001641           JUNCTION      0.00  1367.75     0  01:47           0        6.13       0.046
  YS02001644           JUNCTION   1577.44  2823.91     0  02:01        2.69         8.9       0.037
  YS02001647           JUNCTION      0.00  1743.36     0  01:47           0        7.17       0.006
  YS02001649           JUNCTION      0.00  2040.54     0  01:47           0        9.69       0.005
  YS02001652           JUNCTION      0.00  1602.01     0  02:01           0        2.61      -0.051
  YS02001655           JUNCTION      0.15  1601.72     0  02:01     0.00443        2.61      -0.033
  YS02001658           JUNCTION      0.00  1600.98     0  02:01           0        2.61       0.003
  YS02001661           JUNCTION      0.00  1600.32     0  02:01           0        2.61       0.013
  YS02001664           JUNCTION   1593.88  1593.88     0  02:01        2.61        2.61      -0.006
  YS02001745           JUNCTION    933.17   933.17     0  02:01        1.46        1.46       0.067
  YS02001748           JUNCTION      0.04   944.53     0  02:01      0.0013        1.46      -0.081
  YS02001751           JUNCTION      0.01   944.96     0  02:01    0.000317        1.47       0.039
  YS02001754           JUNCTION      0.26   944.81     0  02:01     0.00749        1.48      -0.068
  YS02001757           JUNCTION      0.00  3669.46     0  02:01           0        15.4       0.029
  YS02001759           JUNCTION   1368.11  1569.40     0  02:04        2.14        4.32      -0.003
  YS02001762           JUNCTION      0.00   782.03     0  02:13           0        2.19       0.014
  YS02001765           JUNCTION      0.00   782.40     0  02:13           0        2.19       0.017
  YS02001767           JUNCTION      0.54   781.99     0  02:13      0.0154        2.19       0.016
  YS02001770           JUNCTION   1885.75  1885.75     0  02:01        3.12        3.16       0.001
  YS02001774           JUNCTION      0.00   851.74     0  02:05           0       0.762       0.195
  YS02001779           JUNCTION      0.01   851.53     0  02:06    0.000144       0.717      -0.039
  YS02001783           JUNCTION      0.00  1183.34     0  02:01           0        5.49       0.006
  YS02001784           JUNCTION      1.06  1185.01     0  02:01      0.0305        5.52       0.009
  YS02001786           JUNCTION      0.06  1184.78     0  02:01     0.00162        5.52       0.013
  YS02001788           JUNCTION      0.07  1185.26     0  02:01     0.00204        5.52       0.005
  YS02001790           JUNCTION      0.15  1193.52     0  02:00     0.00446        5.52      -0.001
  YS02001791           JUNCTION      0.00  1302.14     0  01:59           0        5.52      -0.004
  YS02001793           JUNCTION      0.00  1267.82     0  01:59           0        5.52      -0.052
  YS02001882           JUNCTION      0.00    34.58     0  01:45           0      0.0135       4.448
  YS02001884           JUNCTION      0.00    39.37     0  01:43           0      0.0498       5.241
  YS02001887           JUNCTION   1427.11  1427.14     0  02:01        2.17        2.21       0.198
  YS02001890           JUNCTION      0.00  1426.63     0  02:01           0        2.17       0.240
  YS02001895           JUNCTION      0.00   534.02     0  01:53           0        1.66       0.108
  YS02001898           JUNCTION      0.00   517.91     0  02:00           0        1.66       0.003
  YS02001901           JUNCTION      0.00   517.60     0  02:08           0        1.66       0.205
  YS02001904           JUNCTION      0.00   517.74     0  02:08           0        1.67       0.168
  YS02001907           JUNCTION      0.00  3205.00     0  02:01           0        6.14       0.294
  YS02001910           JUNCTION      0.00  1992.88     0  02:07           0         4.2       0.172
  YS02001915           JUNCTION   1584.04  2426.92     0  02:05        2.74        4.37       0.037
  YS02001918           JUNCTION      0.00   857.88     0  02:05           0        1.64       0.013
  YS02001920           JUNCTION      2.87   858.15     0  02:05      0.0827        1.63       0.059
  YS02001923           JUNCTION      0.04   853.88     0  02:05     0.00109        1.54      -0.015
  YS02001926           JUNCTION      0.05   853.59     0  02:05      0.0015        1.53       0.027
  YS02001929           JUNCTION    852.79   852.79     0  02:05        1.52        1.52      -0.015
  YS02006553           JUNCTION      0.00   788.10     0  02:26           0        3.04       0.385
  YS02006556           JUNCTION      0.00   788.11     0  02:25           0        3.05       0.266
  YS02006558           JUNCTION   1875.84  1875.84     0  02:01        3.05         5.8       0.057
  YS02006561           JUNCTION      0.00  1183.42     0  02:01           0        5.49      -0.001
  YS02163301           JUNCTION      0.00  1028.25     0  02:02           0        4.65       0.034
  YS02163601           JUNCTION      0.11  1368.98     0  01:47     0.00317        6.12       0.082
  YS02164001           JUNCTION      0.00  1368.74     0  01:47           0        6.12       0.040
  YSB1154              JUNCTION    814.52   814.52     0  02:02        1.35        1.35       0.106
  YSB1171              JUNCTION      0.00  1553.47     0  02:01           0        2.66       0.237
  YSB1174              JUNCTION    675.36   675.36     0  02:01        1.02        1.02       0.125
  YSB6556              JUNCTION      0.00   725.69     0  02:03           0        1.34       0.091
  CC-1                 OUTFALL       0.00   683.00     0  00:00           0        6.73       0.000
  CC-2                 OUTFALL       0.00   683.00     0  00:00           0        6.73       0.000
  JK-1                 OUTFALL       0.00  1000.00     0  00:00           0        2.69       0.000
  JK-2                 OUTFALL       0.00  1000.00     0  00:00           0        2.69       0.000
  WSC                  OUTFALL       0.00  1615.54     0  02:07           0        16.3       0.000
  CC-storage           STORAGE       0.00  3669.26     0  02:01           0        17.6      -0.295
  JK-storage           STORAGE       0.00  1338.94     0  02:01           0        5.68      -8.444
  XR-storage           STORAGE     200.00   200.00     0  00:00        5.76        6.36       0.001
  
  
  **********************
  Node Surcharge Summary
  **********************
  
  Surcharging occurs when water rises above the top of the highest conduit.
  ---------------------------------------------------------------------
                                               Max. Height   Min. Depth
                                   Hours       Above Crown    Below Rim
  Node                 Type      Surcharged         Meters       Meters
  ---------------------------------------------------------------------
  HS02004478           JUNCTION        0.96          0.940        0.000
  HS02004479           JUNCTION        1.13          0.906        0.144
  HS02004480           JUNCTION        1.19          1.084        0.016
  HS02004770           JUNCTION        1.06          0.720        0.000
  HS02004777           JUNCTION        1.07          0.780        0.000
  HS02004785           JUNCTION        1.00          0.790        0.000
  HS02004788           JUNCTION        0.99          0.720        0.000
  HS02004792           JUNCTION        1.15          0.900        0.000
  HS02004799           JUNCTION        1.34          1.060        0.000
  HS02004802           JUNCTION        1.20          1.156        0.054
  HS02004807           JUNCTION        1.17          1.220        0.000
  HS02004817           JUNCTION        1.74          1.740        0.000
  HS02004824           JUNCTION        0.98          1.310        0.000
  HS02004830           JUNCTION        0.95          1.330        0.000
  HS02004837           JUNCTION        0.89          1.340        0.000
  HS02004842           JUNCTION        1.07          1.520        0.000
  HS02004848           JUNCTION        0.85          1.370        0.000
  HS02004852           JUNCTION        0.88          1.420        0.000
  HS02004856           JUNCTION        0.87          1.300        0.000
  HS02004862           JUNCTION        0.91          1.300        0.000
  HS02004870           JUNCTION        0.94          1.400        0.000
  HS02004876           JUNCTION        1.03          1.560        0.000
  HS02004881           JUNCTION        1.01          1.450        0.000
  HS02004901           JUNCTION        1.06          0.720        0.000
  WS02004401           JUNCTION        1.91          1.660        0.000
  WS02004402           JUNCTION        1.95          1.740        0.000
  WS02004403           JUNCTION        1.95          1.947        0.083
  WS02004404           JUNCTION        2.12          1.800        0.980
  WS02004405           JUNCTION        2.08          1.437        1.363
  WS02004406           JUNCTION        2.05          0.879        1.571
  WS02004407           JUNCTION        0.20          0.086        2.254
  WS02004409           JUNCTION        1.57          0.506        1.854
  WS02004410           JUNCTION        1.56          0.394        2.146
  WS02004411           JUNCTION        1.51          0.283        2.247
  WS02004412           JUNCTION        1.37          0.154        2.156
  WS02004413           JUNCTION        1.71          0.173        2.027
  WS02006109           JUNCTION        2.67          1.820        0.000
  WS02006110           JUNCTION        2.41          1.638        0.212
  WS02006111           JUNCTION        1.67          1.219        0.651
  WS02006112           JUNCTION        2.50          1.680        0.000
  WS02006113           JUNCTION        1.68          1.301        0.629
  WS02006115           JUNCTION        1.82          2.221        0.029
  WS02006116           JUNCTION        1.83          2.216        0.074
  WS02006228           JUNCTION        2.65          2.200        0.000
  WS02006229           JUNCTION        1.56          1.070        0.000
  WS02006230           JUNCTION        2.18          1.570        0.000
  WS02006231           JUNCTION        2.42          1.530        0.000
  WS02006232           JUNCTION        2.69          1.480        0.000
  WS02006234           JUNCTION        2.47          1.240        0.000
  WS02006235           JUNCTION        2.56          1.290        0.000
  WS02006238           JUNCTION        2.62          1.430        0.000
  WS02006239           JUNCTION        2.55          1.290        0.000
  WS02006240           JUNCTION        2.55          1.390        0.000
  WS02006242           JUNCTION        2.68          0.820        0.000
  WS02006243           JUNCTION        2.57          0.770        0.000
  WS02006245           JUNCTION        2.56          0.850        0.000
  WS02006247           JUNCTION        2.59          0.760        0.000
  WS02006248           JUNCTION        2.55          0.380        0.000
  WS02006249           JUNCTION        2.58          0.390        0.000
  WS02006251           JUNCTION        2.40          1.180        0.000
  WS02006252           JUNCTION        2.78          1.100        0.000
  WS02006253           JUNCTION        2.41          2.480        0.000
  WS02006256           JUNCTION        6.22          2.050        0.000
  WS02006280           JUNCTION        1.35          0.727        0.053
  WS02006284           JUNCTION        1.23          0.800        0.000
  WS02006287           JUNCTION        1.08          0.890        0.000
  YS02001580           JUNCTION        1.08          0.450        0.000
  YS02001583           JUNCTION        1.09          0.500        0.000
  YS02001586           JUNCTION        1.21          0.510        0.000
  YS02001590           JUNCTION        1.31          0.750        0.000
  YS02001593           JUNCTION        1.31          0.714        0.126
  YS02001596           JUNCTION        1.45          0.963        0.107
  YS02001600           JUNCTION        1.58          1.190        0.000
  YS02001601           JUNCTION        1.84          1.440        0.000
  YS02001602           JUNCTION        1.76          1.270        0.000
  YS02001605           JUNCTION        1.72          1.180        0.000
  YS02001607           JUNCTION        1.26          0.680        0.000
  YS02001610           JUNCTION        1.29          0.680        0.000
  YS02001613           JUNCTION        1.25          0.679        0.021
  YS02001616           JUNCTION        1.19          0.610        0.000
  YS02001619           JUNCTION        1.18          0.610        0.000
  YS02001622           JUNCTION        1.17          0.620        0.000
  YS02001625           JUNCTION        1.41          0.780        0.000
  YS02001629           JUNCTION        1.08          0.470        0.000
  YS02001633           JUNCTION        1.42          1.060        0.000
  YS02001641           JUNCTION        1.32          1.100        0.000
  YS02001644           JUNCTION        1.27          0.920        0.000
  YS02001647           JUNCTION        0.95          0.824        0.076
  YS02001649           JUNCTION        1.09          1.050        0.000
  YS02001652           JUNCTION        0.81          1.008        0.122
  YS02001655           JUNCTION        0.59          0.959        0.241
  YS02001658           JUNCTION        0.42          0.799        0.501
  YS02001661           JUNCTION        0.22          0.561        0.829
  YS02001664           JUNCTION        0.05          0.223        1.087
  YS02001745           JUNCTION        0.01          0.070        1.280
  YS02001748           JUNCTION        0.27          0.376        0.814
  YS02001751           JUNCTION        0.46          0.779        0.421
  YS02001754           JUNCTION        0.64          0.914        0.236
  YS02001757           JUNCTION        1.15          1.136        0.074
  YS02001759           JUNCTION        1.03          1.210        0.000
  YS02001762           JUNCTION        0.98          1.150        0.000
  YS02001765           JUNCTION        0.91          1.100        0.000
  YS02001767           JUNCTION        0.86          1.030        0.000
  YS02001770           JUNCTION        0.83          0.920        0.000
  YS02001774           JUNCTION        0.96          1.050        0.000
  YS02001779           JUNCTION        0.64          0.680        0.000
  YS02001783           JUNCTION        0.86          0.497        1.103
  YS02001784           JUNCTION        0.83          0.365        1.125
  YS02001786           JUNCTION        0.69          0.101        1.329
  YS02001882           JUNCTION        0.79          0.793        0.037
  YS02001884           JUNCTION        0.80          0.870        0.000
  YS02001887           JUNCTION        0.85          0.950        0.000
  YS02001890           JUNCTION        0.87          0.760        0.000
  YS02001895           JUNCTION        0.77          0.615        0.135
  YS02001898           JUNCTION        0.76          0.663        0.077
  YS02001901           JUNCTION        0.83          0.752        0.118
  YS02001904           JUNCTION        0.82          0.825        0.025
  YS02001907           JUNCTION        1.18          0.950        0.000
  YS02001910           JUNCTION        0.90          1.014        0.086
  YS02001915           JUNCTION        0.78          1.000        0.000
  YS02001918           JUNCTION        0.67          0.810        0.000
  YS02001920           JUNCTION        0.69          1.068        0.072
  YS02001923           JUNCTION        0.30          0.746        0.074
  YS02001926           JUNCTION        0.33          0.852        0.048
  YS02001929           JUNCTION        0.19          0.721        0.059
  YS02006553           JUNCTION        1.21          1.190        0.000
  YS02006556           JUNCTION        1.03          1.235        0.115
  YS02006558           JUNCTION        1.01          1.400        0.000
  YS02006561           JUNCTION        0.64          0.200        0.950
  YS02163301           JUNCTION        1.40          1.030        0.000
  YS02163601           JUNCTION        1.45          1.080        0.000
  YS02164001           JUNCTION        1.34          1.081        0.019
  YSB1154              JUNCTION        1.53          1.400        0.000
  YSB1171              JUNCTION        1.54          1.100        0.000
  YSB1174              JUNCTION        1.39          1.250        0.000
  YSB6556              JUNCTION        1.28          1.100        0.000
  
  
  *********************
  Node Flooding Summary
  *********************
  
  Flooding refers to all water that overflows a node, whether it ponds or not.
  --------------------------------------------------------------------------
                                                             Total   Maximum
                                 Maximum   Time of Max       Flood    Ponded
                        Hours       Rate    Occurrence      Volume     Depth
  Node                 Flooded       LPS   days hr:min    10^6 ltr    Meters
  --------------------------------------------------------------------------
  HS02004478              0.01      0.53      0  01:53       0.000     0.000
  HS02004770              0.78   3383.97      0  02:02       3.178     0.000
  HS02004777              0.01     28.39      0  01:42       0.000     0.000
  HS02004785              0.01    104.98      0  01:42       0.000     0.000
  HS02004788              0.01     83.44      0  01:42       0.000     0.000
  HS02004792              0.77   4371.63      0  02:02       4.915     0.000
  HS02004799              0.44    461.77      0  02:01       0.348     0.000
  HS02004807              0.37    771.11      0  02:01       0.608     0.000
  HS02004817              0.01      0.56      0  01:52       0.000     0.000
  HS02004824              0.31    749.23      0  02:02       0.502     0.000
  HS02004830              0.01     22.87      0  01:45       0.000     0.000
  HS02004837              0.01      1.28      0  01:53       0.000     0.000
  HS02004842              0.30    901.82      0  02:02       0.534     0.000
  HS02004848              0.01    219.40      0  01:45       0.000     0.000
  HS02004852              0.01      0.70      0  01:52       0.000     0.000
  HS02004856              0.01      0.77      0  01:52       0.000     0.000
  HS02004862              0.27    953.95      0  02:02       0.477     0.000
  HS02004870              0.01      0.81      0  02:00       0.000     0.000
  HS02004876              0.01      0.58      0  01:53       0.000     0.000
  HS02004881              0.01      0.62      0  01:53       0.000     0.000
  HS02004901              0.90   1043.75      0  02:01       1.741     0.000
  WS02004401              0.01     21.47      0  01:28       0.000     0.000
  WS02004402              0.01     17.38      0  01:28       0.000     0.000
  WS02006109              0.85    450.80      0  02:01       0.712     0.000
  WS02006112              0.10    118.43      0  02:01       0.024     0.000
  WS02006228              0.01     10.39      0  01:53       0.000     0.000
  WS02006229              0.01      7.18      0  01:53       0.000     0.000
  WS02006230              1.24    573.52      0  01:54       1.875     0.000
  WS02006231              0.01      0.24      0  01:52       0.000     0.000
  WS02006232              0.39      7.04      0  01:51       0.000     0.000
  WS02006234              1.32     94.27      0  01:51       0.273     0.000
  WS02006235              0.01     60.09      0  01:51       0.000     0.000
  WS02006238              0.01     12.17      0  01:28       0.000     0.000
  WS02006239              0.01      5.42      0  01:28       0.000     0.000
  WS02006240              0.01     54.44      0  01:26       0.000     0.000
  WS02006242              1.52    130.01      0  02:02       0.610     0.000
  WS02006243              0.01    138.19      0  01:26       0.001     0.000
  WS02006245              0.01     65.58      0  01:26       0.000     0.000
  WS02006247              0.01    154.93      0  01:26       0.000     0.000
  WS02006248              1.73    340.86      0  01:35       1.912     0.000
  WS02006249              2.31   1338.93      0  02:01       6.478     0.000
  WS02006251              0.01    119.72      0  01:33       0.000     0.000
  WS02006252              0.94    791.06      0  02:01       1.434     0.000
  WS02006253              0.01      0.18      0  01:53       0.000     0.000
  WS02006256              0.77    298.52      0  02:43       0.644     0.000
  WS02006284              0.01      0.28      0  01:53       0.000     0.000
  WS02006287              0.01      1.05      0  01:53       0.000     0.000
  YS02001580              0.01     33.00      0  01:41       0.000     0.000
  YS02001583              0.01     51.90      0  01:41       0.000     0.000
  YS02001586              0.90   1301.39      0  02:05       1.486     0.000
  YS02001590              0.01      6.28      0  01:41       0.000     0.000
  YS02001600              0.01      2.19      0  01:41       0.000     0.000
  YS02001601              1.11   2329.07      0  02:02       3.200     0.000
  YS02001602              0.89     63.17      0  01:51       0.184     0.000
  YS02001605              0.01      6.00      0  01:53       0.000     0.000
  YS02001607              0.01      1.76      0  01:51       0.000     0.000
  YS02001610              0.80    954.62      0  02:08       1.669     0.000
  YS02001616              0.10      8.67      0  01:53       0.000     0.000
  YS02001619              0.26   1065.35      0  02:05       0.537     0.000
  YS02001622              0.01      0.30      0  01:52       0.000     0.000
  YS02001625              0.73   1505.18      0  02:11       2.414     0.000
  YS02001629              0.35    577.23      0  02:02       0.317     0.000
  YS02001633              0.01      1.60      0  02:00       0.000     0.000
  YS02001641              0.01      0.54      0  01:51       0.000     0.000
  YS02001644              0.39   2823.54      0  02:01       1.811     0.000
  YS02001649              0.01      2.95      0  02:00       0.000     0.000
  YS02001759              0.01      1.25      0  02:00       0.000     0.000
  YS02001762              0.01      0.41      0  02:00       0.000     0.000
  YS02001765              0.01      0.78      0  01:52       0.000     0.000
  YS02001767              0.01      0.70      0  01:52       0.000     0.000
  YS02001770              0.16    845.52      0  02:01       0.251     0.000
  YS02001774              0.01     29.13      0  01:53       0.000     0.000
  YS02001779              0.35    851.35      0  02:06       0.696     0.000
  YS02001884              0.01      0.57      0  01:53       0.000     0.000
  YS02001887              0.01      0.62      0  01:51       0.000     0.000
  YS02001890              0.37    910.33      0  02:01       0.498     0.000
  YS02001907              0.60   3204.52      0  02:01       3.367     0.000
  YS02001915              0.14    434.22      0  02:05       0.145     0.000
  YS02001918              0.01     57.25      0  01:49       0.000     0.000
  YS02006553              0.01      0.99      0  01:51       0.000     0.000
  YS02163301              0.01      0.17      0  01:53       0.000     0.000
  YS02163601              0.01      0.34      0  01:53       0.000     0.000
  YSB1154                 0.09     88.83      0  02:02       0.014     0.000
  YSB1171                 0.60   1553.13      0  02:01       1.797     0.000
  YSB1174                 0.01      0.84      0  02:00       0.000     0.000
  YSB6556                 0.13     85.86      0  02:03       0.033     0.000
  
  
  **********************
  Storage Volume Summary
  **********************
  
  --------------------------------------------------------------------------------------------------
                         Average     Avg  Evap Exfil       Maximum     Max    Time of Max    Maximum
                          Volume    Pcnt  Pcnt  Pcnt        Volume    Pcnt     Occurrence    Outflow
  Storage Unit           1000 m3    Full  Loss  Loss       1000 m3    Full    days hr:min        LPS
  --------------------------------------------------------------------------------------------------
  CC-storage               1.405      22     0     0         4.148      65       0  02:44    1783.53
  JK-storage               0.003       1     0     0         0.150      52       0  00:00    2300.00
  XR-storage               0.931      65     0     0         1.111      77       0  08:00     380.00
  
  
  ***********************
  Outfall Loading Summary
  ***********************
  
  -----------------------------------------------------------
                         Flow       Avg       Max       Total
                         Freq      Flow      Flow      Volume
  Outfall Node           Pcnt       LPS       LPS    10^6 ltr
  -----------------------------------------------------------
  CC-1                  57.15    683.00    683.00       6.730
  CC-2                  57.15    683.00    683.00       6.730
  JK-1                  16.78    994.87   1000.00       2.692
  JK-2                  16.78    994.87   1000.00       2.692
  WSC                   99.95    783.81   1615.54      16.283
  -----------------------------------------------------------
  System                49.57   4139.55   1615.54      35.127
  
  
  ********************
  Link Flow Summary
  ********************
  
  -----------------------------------------------------------------------------
                                 Maximum  Time of Max   Maximum    Max/    Max/
                                  |Flow|   Occurrence   |Veloc|    Full    Full
  Link                 Type          LPS  days hr:min     m/sec    Flow   Depth
  -----------------------------------------------------------------------------
  1                    CONDUIT   1615.54     0  02:07      3.76    0.56    0.54
  HS02004478WS02006287 CONDUIT   2304.94     0  01:53      2.60    0.65    1.00
  HS02004479HS02004480 CONDUIT    380.62     0  01:47      0.54    0.37    1.00
  HS02004480HS02004478 CONDUIT   2046.60     0  01:45      2.92    8.62    1.00
  HS02004770HS02004777 CONDUIT    680.27     0  01:41      0.97    1.24    1.00
  HS02004777HS02004785 CONDUIT    694.28     0  01:41      1.06    0.85    1.00
  HS02004785HS02004788 CONDUIT    654.90     0  01:42      1.36    4.94    1.00
  HS02004788HS02004792 CONDUIT   1004.24     0  02:01      1.43    0.66    1.00
  HS02004792HS02004799 CONDUIT   1611.59     0  01:43      2.30    0.99    1.00
  HS02004799HS02004480 CONDUIT   1729.13     0  01:43      2.47    2.18    1.00
  HS02004802HS02004478 CONDUIT   1233.81     0  02:00      1.76    1.09    1.00
  HS02004807HS02004802 CONDUIT   1233.61     0  02:00      1.76    2.36    1.00
  HS02004817HS02004807 CONDUIT   1196.88     0  02:05      1.71    0.71    1.00
  HS02004817HS02004824 CONDUIT   1196.27     0  02:09      1.71    0.54    1.00
  HS02004824HS02004830 CONDUIT    619.95     0  02:01      0.89    0.81    1.00
  HS02004830HS02004837 CONDUIT    619.37     0  02:01      0.88    0.62    1.00
  HS02004837HS02004842 CONDUIT    707.82     0  01:45      1.01    0.42    1.00
  HS02004842HS02004848 CONDUIT    721.12     0  02:02      1.06    0.42    1.00
  HS02004848HS02004852 CONDUIT    941.37     0  01:45      1.51    1.06    1.00
  HS02004852HS02004856 CONDUIT    908.62     0  01:45      1.42    1.04    1.00
  HS02004856HS02004862 CONDUIT    929.97     0  01:44      1.62    0.93    1.00
  HS02004862HS02004870 CONDUIT   1107.75     0  02:14      1.73    1.20    1.00
  HS02004870HS02004876 CONDUIT   1280.23     0  02:13      1.83    0.85    1.00
  HS02004876HS02004881 CONDUIT   1523.92     0  02:11      2.18   16.21    1.00
  HS02004881HS02006253 CONDUIT   1711.86     0  02:01      2.76    0.33    1.00
  HS02004901HS02004770 CONDUIT    265.79     0  02:28      0.38    1.00    1.00
  WS02001211WS02001212 CONDUIT    214.67     0  03:07      0.54    0.16    0.72
  WS02001212WS02001213 CONDUIT    219.97     0  03:07      1.04    0.34    0.59
  WS02001213WS02003059 CONDUIT    225.92     0  03:07      0.47    0.37    0.92
  WS02003059WS02003060 CONDUIT    232.05     0  03:06      0.65    0.15    0.84
  WS02003060WS02003069 CONDUIT   1613.15     0  02:05      2.12    0.63    0.64
  WS02003066WSF200     CONDUIT   1400.92     0  02:00      3.33    0.24    0.40
  WS02003067WS02003066 CONDUIT   1401.03     0  01:59      2.09    0.45    0.58
  WS02003069WS02003072 CONDUIT   1613.34     0  02:06      1.94    0.78    0.69
  WS02003072WS02003073 CONDUIT   1613.49     0  02:06      2.11    3.48    0.64
  WS02004138WS02004139 CONDUIT    190.00     0  00:32      2.16    0.04    0.43
  WS02004139WS02001211 CONDUIT    220.81     0  01:34      0.54    0.28    0.63
  WS02004401WS02004402 CONDUIT   1399.81     0  02:04      1.78    1.68    1.00
  WS02004402WS02004403 CONDUIT   1399.87     0  02:01      1.78    2.01    1.00
  WS02004403WS02004404 CONDUIT   1400.11     0  02:03      1.78    1.01    1.00
  WS02004404WS02004405 CONDUIT   1400.73     0  02:04      1.78   13.72    1.00
  WS02004405WS02004406 CONDUIT   1400.14     0  02:04      1.78    2.76    1.00
  WS02004406WS02004407 CONDUIT   1400.06     0  02:04      1.99    0.63    1.00
  WS02004407WS02004409 CONDUIT   1399.89     0  02:03      2.01    0.50    1.00
  WS02004409WS02004410 CONDUIT   1399.93     0  02:03      1.78    1.81    1.00
  WS02004410WS02004411 CONDUIT   1399.96     0  02:03      1.78    1.91    1.00
  WS02004411WS02004412 CONDUIT   1399.85     0  02:02      1.78    1.99    1.00
  WS02004412WS02004413 CONDUIT   1399.73     0  02:02      1.78    0.94    1.00
  WS02004413WS02003067 CONDUIT   1399.81     0  02:03      2.13    0.60    0.78
  WS02006109WS02006110 CONDUIT   1122.71     0  02:34      2.23    2.16    1.00
  WS02006110WS02006113 CONDUIT   1122.69     0  02:34      2.23    1.02    1.00
  WS02006111WS02006112 CONDUIT   1122.79     0  02:34      2.23    0.53    1.00
  WS02006112WS02006115 CONDUIT   1399.76     0  02:01      1.78    0.83    1.00
  WS02006113WS02006111 CONDUIT   1122.78     0  02:34      2.69    1.35    1.00
  WS02006115WS02006116 CONDUIT   1400.00     0  02:03      1.78    1.80    1.00
  WS02006116WS02004401 CONDUIT   1399.78     0  02:05      1.78    1.93    1.00
  WS02006228WS02006109 CONDUIT   1287.39     0  01:54      2.56    5.62    1.00
  WS02006229WS02006228 CONDUIT   1287.86     0  02:08      2.56    4.27    1.00
  WS02006230WS02006229 CONDUIT   1015.94     0  01:54      2.64   22.61    1.00
  WS02006231WS02006230 CONDUIT    472.13     0  03:49      1.38    7.16    1.00
  WS02006232WS02006231 CONDUIT    468.72     0  01:51      1.22    0.98    1.00
  WS02006234WS02006232 CONDUIT    461.51     0  01:51      1.39    0.93    1.00
  WS02006235WS02006234 CONDUIT    460.40     0  03:49      1.21    4.86    1.00
  WS02006238WS02006235 CONDUIT    432.79     0  03:46      1.45    0.97    1.00
  WS02006239WS02006238 CONDUIT    420.90     0  03:47      1.10    1.35    1.00
  WS02006240WS02006239 CONDUIT    421.47     0  03:49      1.25    1.33    1.00
  WS02006242WS02006240 CONDUIT    423.72     0  03:49      1.15    1.68    1.00
  WS02006243WS02006242 CONDUIT    425.02     0  03:49      1.32    0.91    1.00
  WS02006245WS02006243 CONDUIT    425.89     0  03:49      1.38    1.26    1.00
  WS02006247WS02006245 CONDUIT    426.37     0  03:49      1.37    3.38    1.00
  WS02006248WS02006247 CONDUIT    426.57     0  03:49      1.41    0.93    1.00
  WS02006249WS02006248 CONDUIT    427.11     0  03:49      1.38    2.34    1.00
  WS02006251WS02006249 CONDUIT   1399.86     0  02:01      3.64    4.04    1.00
  WS02006252WS02006251 CONDUIT    416.15     0  01:26      4.83    1.53    1.00
  WS02006253WS02006251 CONDUIT   1790.55     0  02:01      4.65    5.37    1.00
  WS02006256WS02006235 CONDUIT    288.93     0  00:00      4.23    3.06    1.00
  WS02006280WS02006229 CONDUIT   2303.97     0  01:54      4.61    0.49    1.00
  WS02006284WS02006280 CONDUIT   2303.69     0  01:54      3.02    0.96    1.00
  WS02006287WS02006284 CONDUIT   2302.97     0  01:54      2.93    1.07    1.00
  WSF200WS02003060     CONDUIT   1401.72     0  02:00      2.46    0.31    0.53
  YS02001580YS02001583 CONDUIT     71.41     0  01:40      0.51    0.28    1.00
  YS02001583YS02001586 CONDUIT    113.09     0  01:40      0.48    0.17    1.00
  YS02001586YS02001590 CONDUIT    322.15     0  01:51      1.25    0.56    1.00
  YS02001590YS02001593 CONDUIT    322.56     0  01:53      1.14    2.02    1.00
  YS02001593YS02001596 CONDUIT    317.95     0  02:16      1.76    0.50    1.00
  YS02001596YS02001600 CONDUIT    318.10     0  01:53      1.27    0.62    1.00
  YS02001600YS02001601 CONDUIT    318.53     0  01:53      1.13    0.55    1.00
  YS02001601YS02001602 CONDUIT    491.77     0  01:40      1.74    1.78    1.00
  YS02001602YS02001605 CONDUIT    491.95     0  01:40      1.74   10.41    1.00
  YS02001605YS02001607 CONDUIT    492.49     0  01:40      1.74    2.70    1.00
  YS02001607YS02001610 CONDUIT    493.28     0  01:40      0.63    0.47    1.00
  YS02001610YS02001613 CONDUIT    618.67     0  02:08      0.79    0.71    1.00
  YS02001613YS02001616 CONDUIT    618.59     0  02:08      0.79    0.53    1.00
  YS02001616YS02001619 CONDUIT    618.83     0  02:07      0.79    1.07    1.00
  YS02001619YS02001622 CONDUIT   1053.73     0  02:05      1.34    1.55    1.00
  YS02001622YS02001625 CONDUIT   1053.54     0  02:11      1.34    0.56    1.00
  YS02001625YS02001629 CONDUIT    935.86     0  01:46      1.19    0.45    1.00
  YS02001629YS02163301 CONDUIT   1027.71     0  02:02      1.31    1.27    1.00
  YS02001633YS02163601 CONDUIT   1368.87     0  01:47      1.74    1.44    1.00
  YS02001641YS02001644 CONDUIT   1367.16     0  01:47      1.74    4.42    1.00
  YS02001644YS02001647 CONDUIT   1743.36     0  01:47      2.22    1.02    1.00
  YS02001647YS02001649 CONDUIT   1757.77     0  01:47      2.29    0.93    1.00
  YS02001649YS02001757 CONDUIT   2038.43     0  01:47      2.60    1.24    1.00
  YS02001652YS02001649 CONDUIT   1601.94     0  02:01      2.04    0.79    1.00
  YS02001655YS02001652 CONDUIT   1602.01     0  02:01      2.04    0.78    1.00
  YS02001658YS02001655 CONDUIT   1601.57     0  02:01      2.04    0.68    1.00
  YS02001661YS02001658 CONDUIT   1600.98     0  02:01      2.26    0.63    1.00
  YS02001664YS02001661 CONDUIT   1600.32     0  02:01      2.26    0.50    1.00
  YS02001745YS02001748 CONDUIT    944.49     0  02:01      2.07    0.36    1.00
  YS02001748YS02001751 CONDUIT    944.95     0  02:01      1.60    0.48    1.00
  YS02001751YS02001754 CONDUIT    944.55     0  02:01      1.32    0.46    1.00
  YS02001754YS02001757 CONDUIT    944.68     0  02:01      1.20    0.38    1.00
  YS02001757CaochengTiaoxuchi CONDUIT   3669.26     0  02:01      6.47    1.59    1.00
  YS02001759YS02001757 CONDUIT   1569.75     0  02:04      2.00    1.12    1.00
  YS02001762YS02001759 CONDUIT    782.41     0  02:13      1.00    0.90    1.00
  YS02001765YS02001762 CONDUIT    782.03     0  02:13      1.00    0.73    1.00
  YS02001767YS02001765 CONDUIT    782.40     0  02:13      1.00    0.98    1.00
  YS02001770YS02001767 CONDUIT    781.46     0  02:13      0.99    3.10    1.00
  YS02001774YS02001770 CONDUIT    851.74     0  02:05      1.08    0.54    1.00
  YS02001779YS02001774 CONDUIT    851.52     0  02:06      1.08    0.43    1.00
  YS02001783YS02001784 CONDUIT   1183.95     0  02:01      2.36    1.63    1.00
  YS02001784YS02001785 CONDUIT   1184.72     0  02:01      2.36    2.76    1.00
  YS02001786YS02001788 CONDUIT   1185.19     0  02:01      2.52    2.28    0.89
  YS02001788YS02001790 CONDUIT   1193.36     0  02:00      2.75    0.88    0.85
  YS02001790YS02001791 CONDUIT   1302.14     0  01:59      3.43    1.42    0.71
  YS02001791YS02001793 CONDUIT   1267.82     0  01:59      6.50    0.54    0.43
  YS02001793JiankangQianchi CONDUIT   1338.94     0  02:01     24.33    0.11    0.50
  YS02001882YS02001884 CONDUIT     34.58     0  01:45      0.20    0.04    1.00
  YS02001884YS02001887 CONDUIT     39.37     0  01:43      0.15    0.05    1.00
  YS02001887YS02001890 CONDUIT   1426.63     0  02:01      1.82    2.44    1.00
  YS02001890YS02001895 CONDUIT    534.02     0  01:53      0.68    0.25    1.00
  YS02001895YS02001898 CONDUIT    517.91     0  02:00      0.66    0.90    1.00
  YS02001898YS02001901 CONDUIT    517.60     0  02:08      0.66    0.33    1.00
  YS02001901YS02001904 CONDUIT    517.74     0  02:08      0.66    0.80    1.00
  YS02001904YS02001907 CONDUIT    518.29     0  02:08      0.66    0.18    1.00
  YS02001907YS02006553 CONDUIT    788.10     0  02:26      0.88    0.93    1.00
  YS02001910YS02001907 CONDUIT   1992.83     0  02:05      2.54    1.12    1.00
  YS02001915YS02001910 CONDUIT   1992.88     0  02:07      2.54    0.99    1.00
  YS02001918YS02001915 CONDUIT    858.86     0  02:05      1.09    0.47    1.00
  YS02001920YS02001918 CONDUIT    857.88     0  02:05      1.09    0.83    1.00
  YS02001923YS02001920 CONDUIT    855.28     0  02:05      1.09    0.38    1.00
  YS02001926YS02001923 CONDUIT    853.85     0  02:05      1.09    1.22    1.00
  YS02001929YS02001926 CONDUIT    853.53     0  02:05      1.09    0.41    1.00
  YS02006553YS02006556 CONDUIT    788.11     0  02:25      1.00    0.67    1.00
  YS02006556YS02006558 CONDUIT    788.71     0  02:25      1.00    0.62    1.00
  YS02006558YS02006561 CONDUIT   1183.42     0  02:01      4.19    2.62    1.00
  YS02006561YS02001783 CONDUIT   1183.34     0  02:01      2.35    0.61    1.00
  YS02163301YS02001633 CONDUIT   1028.25     0  02:02      1.31    0.97    1.00
  YS02163601YS02164001 CONDUIT   1368.74     0  01:47      1.74    1.21    1.00
  YS02164001YS02001641 CONDUIT   1367.75     0  01:47      1.74    1.87    1.00
  YSB1154YSB6556       CONDUIT    725.69     0  02:03      1.89    1.30    1.00
  YSB1171HS02004479    CONDUIT    380.43     0  01:47      0.76    0.25    1.00
  YSB1174YSB1171       CONDUIT    675.44     0  02:01      1.76    1.03    1.00
  YSB6556YSB1171       CONDUIT    639.84     0  02:06      1.66    0.66    1.00
  CC-R1                PUMP       683.00     0  00:00              1.00
  CC-R2                PUMP       683.00     0  00:00              1.00
  CC-S1                PUMP       200.00     0  00:00              1.00
  CC-S2                PUMP       200.00     0  00:00              1.00
  JK-R1                PUMP      1000.00     0  00:00              1.00
  JK-R2                PUMP      1000.00     0  00:00              1.00
  JK-S                 PUMP       300.00     0  00:00              1.00
  XR-1                 PUMP        95.00     0  00:00              1.00
  XR-2                 PUMP        95.00     0  00:00              1.00
  XR-3                 PUMP        95.00     0  00:00              1.00
  XR-4                 PUMP        95.00     0  00:00              1.00
  
  
  ***************************
  Flow Classification Summary
  ***************************
  
  -------------------------------------------------------------------------------------
                      Adjusted    ---------- Fraction of Time in Flow Class ---------- 
                       /Actual         Up    Down  Sub   Sup   Up    Down  Norm  Inlet 
  Conduit               Length    Dry  Dry   Dry   Crit  Crit  Crit  Crit  Ltd   Ctrl  
  -------------------------------------------------------------------------------------
  1                       1.00   0.00  0.00  0.00  0.00  1.00  0.00  0.00  0.44  0.00
  HS02004478WS02006287    1.00   0.13  0.00  0.00  0.65  0.22  0.00  0.00  0.57  0.00
  HS02004479HS02004480    1.00   0.05  0.00  0.00  0.95  0.00  0.00  0.00  0.10  0.00
  HS02004480HS02004478    1.00   0.13  0.00  0.00  0.60  0.00  0.00  0.27  0.00  0.00
  HS02004770HS02004777    1.00   0.00  0.12  0.00  0.88  0.00  0.00  0.00  0.01  0.00
  HS02004777HS02004785    1.00   0.00  0.00  0.00  1.00  0.00  0.00  0.00  0.10  0.00
  HS02004785HS02004788    1.00   0.00  0.00  0.00  1.00  0.00  0.00  0.00  0.00  0.00
  HS02004788HS02004792    1.00   0.00  0.00  0.00  0.99  0.01  0.00  0.00  0.83  0.00
  HS02004792HS02004799    1.00   0.00  0.00  0.00  0.99  0.01  0.00  0.00  0.78  0.00
  HS02004799HS02004480    1.00   0.00  0.05  0.00  0.87  0.00  0.08  0.00  0.00  0.00
  HS02004802HS02004478    1.00   0.13  0.00  0.00  0.87  0.00  0.00  0.00  0.02  0.00
  HS02004807HS02004802    1.00   0.12  0.00  0.00  0.87  0.00  0.00  0.01  0.00  0.00
  HS02004817HS02004807    1.00   0.00  0.12  0.00  0.88  0.00  0.00  0.00  0.01  0.00
  HS02004817HS02004824    1.00   0.00  0.00  0.00  1.00  0.00  0.00  0.00  0.76  0.00
  HS02004824HS02004830    1.00   0.00  0.00  0.00  1.00  0.00  0.00  0.00  0.01  0.00
  HS02004830HS02004837    1.00   0.00  0.00  0.00  1.00  0.00  0.00  0.00  0.80  0.00
  HS02004837HS02004842    1.00   0.00  0.00  0.00  1.00  0.00  0.00  0.00  0.11  0.00
  HS02004842HS02004848    1.00   0.00  0.12  0.00  0.88  0.00  0.00  0.00  0.54  0.00
  HS02004848HS02004852    1.00   0.12  0.00  0.00  0.88  0.00  0.00  0.00  0.66  0.00
  HS02004852HS02004856    1.00   0.12  0.00  0.00  0.87  0.00  0.00  0.00  0.63  0.00
  HS02004856HS02004862    1.00   0.00  0.13  0.00  0.87  0.00  0.00  0.00  0.68  0.00
  HS02004862HS02004870    1.00   0.00  0.00  0.00  1.00  0.00  0.00  0.00  0.02  0.00
  HS02004870HS02004876    1.00   0.00  0.00  0.00  0.97  0.02  0.00  0.00  0.79  0.00
  HS02004876HS02004881    1.00   0.02  0.00  0.00  0.79  0.19  0.00  0.00  0.00  0.00
  HS02004881HS02006253    1.00   0.00  0.07  0.00  0.53  0.01  0.00  0.38  0.16  0.00
  HS02004901HS02004770    1.00   0.12  0.00  0.00  0.88  0.00  0.00  0.00  0.00  0.00
  WS02001211WS02001212    1.00   0.00  0.03  0.00  0.97  0.00  0.00  0.00  0.00  0.00
  WS02001212WS02001213    1.00   0.03  0.00  0.00  0.57  0.00  0.40  0.00  0.00  0.00
  WS02001213WS02003059    1.00   0.00  0.00  0.00  0.99  0.00  0.00  0.00  0.00  0.00
  WS02003059WS02003060    1.00   0.00  0.00  0.00  1.00  0.00  0.00  0.00  0.03  0.00
  WS02003060WS02003069    1.00   0.00  0.00  0.00  0.97  0.03  0.00  0.00  0.55  0.00
  WS02003066WSF200        1.00   0.07  0.00  0.00  0.00  0.93  0.00  0.00  0.62  0.00
  WS02003067WS02003066    1.00   0.07  0.01  0.00  0.93  0.00  0.00  0.00  0.00  0.00
[...]
  WS02006280WS02006229    1.00   0.13  0.00  0.00  0.37  0.03  0.00  0.46  0.01  0.00
  WS02006284WS02006280    1.00   0.13  0.00  0.00  0.34  0.03  0.00  0.51  0.00  0.00
  WS02006287WS02006284    1.00   0.11  0.02  0.00  0.57  0.29  0.00  0.00  0.63  0.00
  WSF200WS02003060        1.00   0.00  0.07  0.00  0.37  0.56  0.00  0.00  0.58  0.00
  YS02001580YS02001583    1.00   0.22  0.33  0.00  0.45  0.00  0.00  0.00  0.63  0.00
  YS02001583YS02001586    1.00   0.30  0.19  0.00  0.50  0.00  0.00  0.00  0.63  0.00
  YS02001586YS02001590    1.00   0.12  0.00  0.00  0.64  0.02  0.00  0.21  0.30  0.00
  YS02001590YS02001593    1.00   0.12  0.00  0.00  0.34  0.00  0.53  0.00  0.00  0.00
  YS02001593YS02001596    1.00   0.13  0.00  0.00  0.37  0.01  0.00  0.49  0.02  0.00
  YS02001596YS02001600    1.00   0.13  0.00  0.00  0.43  0.02  0.00  0.42  0.03  0.00
  YS02001600YS02001601    1.00   0.13  0.00  0.00  0.87  0.00  0.00  0.00  0.58  0.00
  YS02001601YS02001602    1.00   0.12  0.00  0.00  0.87  0.00  0.00  0.00  0.00  0.00
  YS02001602YS02001605    1.00   0.13  0.00  0.00  0.87  0.00  0.00  0.00  0.00  0.00
  YS02001605YS02001607    1.00   0.13  0.00  0.00  0.87  0.00  0.00  0.00  0.00  0.00
  YS02001607YS02001610    1.00   0.13  0.00  0.00  0.87  0.00  0.00  0.00  0.01  0.00
  YS02001610YS02001613    1.00   0.13  0.00  0.00  0.87  0.00  0.00  0.00  0.00  0.00
  YS02001613YS02001616    1.00   0.12  0.00  0.00  0.88  0.00  0.00  0.00  0.00  0.00
  YS02001616YS02001619    1.00   0.12  0.00  0.00  0.88  0.00  0.00  0.00  0.00  0.00
  YS02001619YS02001622    1.00   0.12  0.00  0.00  0.88  0.00  0.00  0.00  0.32  0.00
  YS02001622YS02001625    1.00   0.12  0.00  0.00  0.88  0.00  0.00  0.00  0.02  0.00
  YS02001625YS02001629    1.00   0.13  0.02  0.00  0.39  0.00  0.47  0.00  0.00  0.00
  YS02001629YS02163301    1.00   0.13  0.00  0.00  0.87  0.00  0.00  0.00  0.00  0.00
  YS02001633YS02163601    1.00   0.00  0.01  0.00  0.99  0.00  0.00  0.00  0.14  0.00
  YS02001641YS02001644    1.00   0.00  0.00  0.00  1.00  0.00  0.00  0.00  0.00  0.00
  YS02001644YS02001647    1.00   0.00  0.14  0.00  0.86  0.00  0.00  0.00  0.00  0.00
  YS02001647YS02001649    1.00   0.00  0.13  0.00  0.63  0.23  0.00  0.00  0.56  0.00
  YS02001649YS02001757    1.00   0.00  0.00  0.00  0.78  0.22  0.00  0.00  0.47  0.00
  YS02001652YS02001649    1.00   0.00  0.00  0.00  0.98  0.01  0.00  0.00  0.71  0.00
  YS02001655YS02001652    1.00   0.00  0.00  0.00  0.42  0.01  0.00  0.57  0.05  0.00
  YS02001658YS02001655    1.00   0.00  0.13  0.00  0.65  0.22  0.00  0.00  0.64  0.00
  YS02001661YS02001658    1.00   0.13  0.00  0.00  0.49  0.39  0.00  0.00  0.68  0.00
  YS02001664YS02001661    1.00   0.12  0.00  0.00  0.61  0.27  0.00  0.00  0.83  0.00
  YS02001745YS02001748    1.00   0.00  0.00  0.00  0.24  0.02  0.00  0.74  0.07  0.00
  YS02001748YS02001751    1.00   0.00  0.00  0.00  0.82  0.18  0.00  0.00  0.75  0.00
  YS02001751YS02001754    1.00   0.00  0.00  0.00  0.38  0.02  0.00  0.61  0.03  0.00
  YS02001754YS02001757    1.00   0.00  0.00  0.00  1.00  0.00  0.00  0.00  0.77  0.00
  YS02001757CaochengTiaoxuchi    1.00   0.00  0.00  0.00  0.59  0.41  0.00  0.00  0.50  0.00
  YS02001759YS02001757    1.00   0.00  0.00  0.00  1.00  0.00  0.00  0.00  0.63  0.00
  YS02001762YS02001759    1.00   0.00  0.00  0.00  1.00  0.00  0.00  0.00  0.03  0.00
  YS02001765YS02001762    1.00   0.00  0.00  0.00  1.00  0.00  0.00  0.00  0.71  0.00
  YS02001767YS02001765    1.00   0.00  0.00  0.00  1.00  0.00  0.00  0.00  0.00  0.00
  YS02001770YS02001767    1.00   0.00  0.00  0.00  1.00  0.00  0.00  0.00  0.00  0.00
  YS02001774YS02001770    1.00   0.00  0.12  0.00  0.74  0.00  0.13  0.00  0.01  0.00
  YS02001779YS02001774    1.00   0.00  0.00  0.00  1.00  0.00  0.00  0.00  0.74  0.00
  YS02001783YS02001784    1.00   0.00  0.14  0.00  0.86  0.00  0.00  0.00  0.56  0.00
  YS02001784YS02001785    1.00   0.00  0.00  0.00  1.00  0.00  0.00  0.00  0.14  0.00
  YS02001786YS02001788    1.00   0.00  0.00  0.00  0.69  0.31  0.00  0.00  0.00  0.00
  YS02001788YS02001790    1.00   0.00  0.00  0.00  0.23  0.77  0.00  0.00  0.77  0.00
  YS02001790YS02001791    1.00   0.00  0.00  0.00  0.01  0.99  0.00  0.00  0.14  0.00
  YS02001791YS02001793    1.00   0.00  0.00  0.00  0.00  1.00  0.00  0.00  0.02  0.00
  YS02001793JiankangQianchi    1.00   0.00  0.00  0.00  0.12  0.88  0.00  0.00  0.59  0.00
  YS02001882YS02001884    1.00   0.13  0.00  0.00  0.87  0.00  0.00  0.00  0.00  0.00
  YS02001884YS02001887    1.00   0.08  0.03  0.00  0.88  0.00  0.00  0.00  0.00  0.00
  YS02001887YS02001890    1.00   0.00  0.00  0.00  0.96  0.00  0.04  0.00  0.00  0.00
  YS02001890YS02001895    1.00   0.00  0.13  0.00  0.87  0.00  0.00  0.00  0.00  0.00
  YS02001895YS02001898    1.00   0.13  0.00  0.00  0.86  0.00  0.01  0.00  0.00  0.00
  YS02001898YS02001901    1.00   0.13  0.00  0.00  0.87  0.00  0.00  0.00  0.00  0.00
  YS02001901YS02001904    1.00   0.13  0.00  0.00  0.87  0.00  0.00  0.00  0.00  0.00
  YS02001904YS02001907    1.00   0.00  0.13  0.00  0.87  0.00  0.00  0.00  0.00  0.00
  YS02001907YS02006553    1.00   0.00  0.02  0.00  0.98  0.00  0.00  0.00  0.00  0.00
  YS02001910YS02001907    1.00   0.00  0.00  0.00  0.96  0.01  0.00  0.03  0.11  0.00
  YS02001915YS02001910    1.00   0.00  0.00  0.00  0.97  0.03  0.00  0.00  0.12  0.00
  YS02001918YS02001915    1.00   0.00  0.00  0.00  0.97  0.02  0.00  0.00  0.69  0.00
  YS02001920YS02001918    1.00   0.00  0.00  0.00  1.00  0.00  0.00  0.00  0.00  0.00
  YS02001923YS02001920    1.00   0.00  0.00  0.00  1.00  0.00  0.00  0.00  0.88  0.00
  YS02001926YS02001923    1.00   0.00  0.10  0.00  0.19  0.00  0.71  0.00  0.00  0.00
  YS02001929YS02001926    1.00   0.00  0.12  0.00  0.88  0.00  0.00  0.00  0.78  0.00
  YS02006553YS02006556    1.00   0.01  0.00  0.00  0.99  0.00  0.00  0.00  0.03  0.00
  YS02006556YS02006558    1.00   0.00  0.00  0.00  1.00  0.00  0.00  0.00  0.00  0.00
  YS02006558YS02006561    1.00   0.14  0.00  0.00  0.18  0.68  0.00  0.00  0.14  0.00
  YS02006561YS02001783    1.00   0.14  0.00  0.00  0.26  0.60  0.00  0.00  0.64  0.00
  YS02163301YS02001633    1.00   0.00  0.13  0.00  0.87  0.00  0.00  0.00  0.00  0.00
  YS02163601YS02164001    1.00   0.00  0.10  0.00  0.90  0.00  0.00  0.00  0.00  0.00
  YS02164001YS02001641    1.00   0.01  0.10  0.00  0.90  0.00  0.00  0.00  0.05  0.00
  YSB1154YSB6556          1.00   0.12  0.00  0.00  0.88  0.00  0.00  0.00  0.01  0.00
  YSB1171HS02004479       1.00   0.06  0.00  0.00  0.92  0.00  0.00  0.02  0.09  0.00
  YSB1174YSB1171          1.00   0.07  0.03  0.00  0.89  0.00  0.00  0.00  0.00  0.00
  YSB6556YSB1171          1.00   0.06  0.06  0.00  0.88  0.00  0.00  0.00  0.00  0.00
  
  
  *************************
  Conduit Surcharge Summary
  *************************
  
  ----------------------------------------------------------------------------
                                                           Hours        Hours 
                         --------- Hours Full --------   Above Full   Capacity
  Conduit                Both Ends  Upstream  Dnstream   Normal Flow   Limited
  ----------------------------------------------------------------------------
  HS02004478WS02006287        0.96      0.96      1.20      0.01         0.01
  HS02004479HS02004480        1.19      1.19      1.23      0.01         0.01
  HS02004480HS02004478        1.09      1.19      1.09      2.02         1.09
  HS02004770HS02004777        1.06      1.06      1.07      0.15         0.10
  HS02004777HS02004785        1.00      1.00      1.07      0.01         0.01
  HS02004785HS02004788        0.99      1.00      0.99      1.73         0.77
  HS02004788HS02004792        0.99      0.99      1.15      0.01         0.01
  HS02004792HS02004799        1.15      1.15      1.34      0.01         0.01
  HS02004799HS02004480        1.19      1.19      1.34      1.51         0.01
  HS02004802HS02004478        1.11      1.11      1.21      0.38         0.01
  HS02004807HS02004802        1.17      1.17      1.20      0.59         0.60
  HS02004817HS02004807        1.17      1.17      1.74      0.01         0.01
  HS02004817HS02004824        0.98      0.98      1.74      0.01         0.01
  HS02004824HS02004830        0.95      0.95      0.98      0.01         0.01
  HS02004830HS02004837        0.89      0.89      0.95      0.01         0.01
  HS02004837HS02004842        0.89      0.89      1.07      0.01         0.01
  HS02004842HS02004848        0.85      0.85      1.07      0.01         0.01
  HS02004848HS02004852        0.85      0.85      0.88      0.01         0.01
  HS02004852HS02004856        0.88      0.88      0.91      0.01         0.01
  HS02004856HS02004862        0.87      0.87      0.91      0.01         0.01
  HS02004862HS02004870        0.91      0.91      0.94      0.35         0.36
  HS02004870HS02004876        0.94      0.94      1.03      0.01         0.01
  HS02004876HS02004881        1.01      1.03      1.01      1.88         1.01
  HS02004881HS02006253        1.01      1.01      2.41      0.01         0.01
  HS02004901HS02004770        1.06      1.06      1.06      0.35         0.01
  WS02003072WS02003073        0.01      0.01      0.01      2.81         0.01
  WS02004401WS02004402        1.91      1.91      1.95      1.76         1.72
  WS02004402WS02004403        1.95      1.95      1.95      1.90         1.89
  WS02004403WS02004404        1.95      1.95      2.12      0.12         0.14
  WS02004404WS02004405        2.08      2.12      2.08      3.44         2.08
  WS02004405WS02004406        2.05      2.08      2.05      2.48         2.04
  WS02004406WS02004407        0.20      0.20      2.05      0.01         0.01
  WS02004407WS02004409        0.20      0.20      1.57      0.01         0.01
  WS02004409WS02004410        1.56      1.57      1.56      1.81         1.56
  WS02004410WS02004411        1.51      1.56      1.51      1.87         1.51
  WS02004411WS02004412        1.37      1.51      1.37      1.90         1.37
  WS02004412WS02004413        1.37      1.37      1.71      0.01         0.01
  WS02004413WS02003067        0.01      0.01      1.71      0.01         0.01
  WS02006109WS02006110        2.41      2.41      2.77      2.42         0.01
  WS02006110WS02006113        1.68      1.68      2.73      0.36         0.01
  WS02006111WS02006112        1.67      1.67      2.84      0.01         0.01
  WS02006112WS02006115        1.82      1.82      2.50      0.01         0.01
  WS02006113WS02006111        1.68      1.68      1.68      1.75         1.63
  WS02006115WS02006116        1.83      1.83      1.83      1.81         1.79
  WS02006116WS02004401        1.90      1.90      1.91      1.87         1.86
  WS02006228WS02006109        2.67      2.77      2.67      3.08         2.67
  WS02006229WS02006228        2.65      2.71      2.65      2.95         2.65
  WS02006230WS02006229        2.85      2.88      2.85      3.45         1.13
  WS02006231WS02006230        2.17      2.17      2.46      3.24         1.64
  WS02006232WS02006231        2.42      2.42      2.69      0.01         0.26
  WS02006234WS02006232        2.48      2.48      2.69      0.01         0.04
  WS02006235WS02006234        2.47      2.47      2.56      2.98         1.59
  WS02006238WS02006235        2.59      2.59      2.68      0.01         0.27
  WS02006239WS02006238        2.61      2.66      2.62      2.36         0.79
  WS02006240WS02006239        2.54      2.57      2.55      2.34         0.73
  WS02006242WS02006240        2.55      2.55      2.72      2.52         1.38
  WS02006243WS02006242        2.58      2.58      2.68      0.01         0.02
  WS02006245WS02006243        2.57      2.58      2.57      0.92         0.72
  WS02006247WS02006245        2.56      2.61      2.56      2.80         0.91
  WS02006248WS02006247        2.56      2.56      2.59      0.01         0.06
  WS02006249WS02006248        2.54      2.55      2.58      1.11         0.01
  WS02006251WS02006249        2.57      2.58      2.58      2.71         2.51
  WS02006252WS02006251        2.77      2.77      2.78      2.26         0.29
  WS02006253WS02006251        2.58      2.58      2.61      1.38         0.02
  WS02006256WS02006235        3.12      3.16      6.08      0.10         0.16
  WS02006280WS02006229        1.37      1.37      1.56      0.01         0.01
  WS02006284WS02006280        1.23      1.23      1.35      0.01         0.01
  WS02006287WS02006284        1.08      1.08      1.25      0.64         0.65
  YS02001580YS02001583        1.08      1.08      1.12      0.01         0.01
  YS02001583YS02001586        1.09      1.09      1.21      0.01         0.01
  YS02001586YS02001590        1.22      1.22      1.31      0.01         0.01
  YS02001590YS02001593        1.31      1.31      1.34      1.35         0.01
  YS02001593YS02001596        1.33      1.33      1.45      0.01         0.01
  YS02001596YS02001600        1.51      1.51      1.58      0.01         0.01
  YS02001600YS02001601        1.64      1.64      1.84      0.01         0.01
  YS02001601YS02001602        1.76      1.76      1.86      1.61         0.01
  YS02001602YS02001605        1.72      1.72      1.76      2.46         0.01
  YS02001605YS02001607        1.68      1.72      1.68      1.81         1.68
  YS02001607YS02001610        1.26      1.26      1.29      0.01         0.01
  YS02001610YS02001613        1.25      1.25      1.29      0.01         0.01
  YS02001613YS02001616        1.19      1.19      1.25      0.01         0.01
  YS02001616YS02001619        1.18      1.18      1.19      0.25         0.19
  YS02001619YS02001622        1.17      1.18      1.17      1.35         1.14
  YS02001622YS02001625        1.17      1.17      1.40      0.01         0.01
  YS02001625YS02001629        1.08      1.08      1.40      0.01         0.01
  YS02001629YS02163301        1.39      1.39      1.40      0.54         0.40
  YS02001633YS02163601        1.42      1.42      1.45      0.66         0.65
  YS02001641YS02001644        1.27      1.32      1.27      1.88         1.27
  YS02001644YS02001647        0.95      0.95      1.27      0.04         0.01
  YS02001647YS02001649        0.95      0.95      1.09      0.01         0.01
  YS02001649YS02001757        1.08      1.09      1.15      0.47         0.39
  YS02001652YS02001649        0.85      0.85      1.09      0.01         0.01
  YS02001655YS02001652        0.59      0.59      0.81      0.01         0.01
  YS02001658YS02001655        0.42      0.42      0.59      0.01         0.01
  YS02001661YS02001658        0.22      0.22      0.42      0.01         0.01
  YS02001664YS02001661        0.05      0.05      0.26      0.01         0.01
  YS02001745YS02001748        0.01      0.01      0.27      0.01         0.01
  YS02001748YS02001751        0.37      0.37      0.46      0.01         0.01
  YS02001751YS02001754        0.46      0.46      0.64      0.01         0.01
  YS02001754YS02001757        0.71      0.71      1.15      0.01         0.01
  YS02001757CaochengTiaoxuchi        0.75      1.15      1.18      0.77         0.29
  YS02001759YS02001757        1.03      1.03      1.15      0.22         0.23
  YS02001762YS02001759        0.98      0.98      1.03      0.01         0.03
  YS02001765YS02001762        0.91      0.91      0.98      0.01         0.01
  YS02001767YS02001765        0.86      0.86      0.91      0.01         0.06
  YS02001770YS02001767        0.86      0.87      0.86      0.87         0.68
  YS02001774YS02001770        0.83      0.83      0.96      0.01         0.01
  YS02001779YS02001774        0.64      0.64      0.96      0.01         0.01
  YS02001783YS02001784        0.83      0.86      0.83      1.08         0.83
  YS02001784YS02001785        0.69      0.83      0.69      1.44         0.69
  YS02001786YS02001788        0.01      0.69      0.01      1.25         0.01
  YS02001790YS02001791        0.01      0.01      0.01      0.81         0.01
  YS02001882YS02001884        0.79      0.79      0.80      0.01         0.01
  YS02001884YS02001887        0.83      0.83      0.85      0.01         0.01
  YS02001887YS02001890        0.87      0.87      0.88      0.30         0.01
  YS02001890YS02001895        0.77      0.77      0.91      0.01         0.01
  YS02001895YS02001898        0.76      0.76      0.77      0.01         0.01
  YS02001898YS02001901        0.78      0.78      0.83      0.01         0.01
  YS02001901YS02001904        0.82      0.82      0.83      0.01         0.01
  YS02001904YS02001907        0.82      0.82      1.22      0.01         0.01
  YS02001907YS02006553        1.46      1.46      1.54      0.01         0.01
  YS02001910YS02001907        0.90      0.90      1.18      0.17         0.17
  YS02001915YS02001910        0.78      0.78      0.90      0.01         0.02
  YS02001918YS02001915        0.67      0.67      0.78      0.01         0.01
  YS02001920YS02001918        0.67      0.67      0.69      0.01         0.01
  YS02001923YS02001920        0.61      0.61      0.69      0.01         0.01
  YS02001926YS02001923        0.30      0.30      0.33      0.14         0.01
  YS02001929YS02001926        0.19      0.19      0.33      0.01         0.01
  YS02006553YS02006556        1.03      1.03      1.21      0.01         0.01
  YS02006556YS02006558        1.13      1.13      1.24      0.01         0.01
  YS02006558YS02006561        0.72      1.01      0.72      1.38         0.72
  YS02006561YS02001783        0.64      0.64      0.86      0.01         0.01
  YS02163301YS02001633        1.40      1.40      1.44      0.01         0.01
  YS02163601YS02164001        1.34      1.34      1.45      0.19         0.01
  YS02164001YS02001641        1.32      1.34      1.32      1.17         1.00
  YSB1154YSB6556              1.28      1.28      1.53      0.17         0.01
  YSB1171HS02004479           1.13      1.13      1.54      0.01         0.01
  YSB1174YSB1171              1.39      1.39      1.71      0.02         0.02
  YSB6556YSB1171              1.28      1.28      1.80      0.01         0.01
  
  
  ***************
  Pumping Summary
  ***************
  
  ---------------------------------------------------------------------------------------------------------
                                                  Min       Avg       Max     Total     Power    % Time Off
                        Percent   Number of      Flow      Flow      Flow    Volume     Usage    Pump Curve
  Pump                 Utilized   Start-Ups       LPS       LPS       LPS  10^6 ltr     Kw-hr    Low   High
  ---------------------------------------------------------------------------------------------------------
  CC-R1                   34.21           3      0.00    683.00    683.00     6.729    115.76    0.0   56.7
  CC-R2                   34.21           3      0.00    683.00    683.00     6.729    115.76    0.0   56.7
  CC-S1                   34.21           3      0.00    200.00    200.00     1.970     15.90    0.0   24.2
  CC-S2                   34.21           3      0.00    200.00    200.00     1.970     15.90    0.0   24.2
  JK-R1                    9.62         459      0.00    994.87   1000.00     2.740      6.65    0.0    0.0
  JK-R2                    9.62         459      0.00    994.87   1000.00     2.740      6.65    0.0    0.0
  JK-S                     9.62         459      0.00    299.85    300.00     0.830     18.96    0.0    0.0
  XR-1                    97.91           2      0.00     95.00     95.00     2.679      9.63    0.0    0.0
  XR-2                    93.94           2      0.00     95.00     95.00     2.570      8.78    0.0    0.0
  XR-3                     0.00           1      0.00     95.00     95.00     0.000      0.00    0.0    0.0
  XR-4                     0.00           1      0.00     95.00     95.00     0.000      0.00    0.0    0.0
  

  Analysis begun on:  Mon Jun 12 11:28:02 2023
  Analysis ended on:  Mon Jun 12 11:28:07 2023
  Total elapsed time: 00:00:05