
  OWA STORM WATER MANAGEMENT MODEL - VERSION v5.1.14 (OWA 2022-07-31)
  --------------------------------------------------------------

  WARNING 04: minimum elevation drop used for Conduit WS02004404WS02004405
  WARNING 03: negative offset ignored for Link YS02001904YS02001907
  
  *********************************************************
  NOTE: The summary statistics displayed in this report are
  based on results found at every computational time step,  
  not just on results from each reporting time step.
  *********************************************************
  
  ****************
  Analysis Options
  ****************
  Flow Units ............... LPS
  Process Models:
    Rainfall/Runoff ........ YES
    RDII ................... NO
    Snowmelt ............... NO
    Groundwater ............ NO
    Flow Routing ........... YES
    Ponding Allowed ........ NO
    Water Quality .......... NO
  Infiltration Method ...... HORTON
  Flow Routing Method ...... DYNWAVE
  Surcharge Method ......... EXTRAN
  Starting Date ............ 08/28/2015 08:00:00
  Ending Date .............. 08/28/2015 16:00:00
  Antecedent Dry Days ...... 8.0
  Report Time Step ......... 00:01:00
  Wet Time Step ............ 00:01:00
  Dry Time Step ............ 00:01:00
  Routing Time Step ........ 30.00 sec
  Variable Time Step ....... YES
  Maximum Trials ........... 8
  Number of Threads ........ 4
  Head Tolerance ........... 0.001500 m
  
  
  **************************        Volume         Depth
  Runoff Quantity Continuity     hectare-m            mm
  **************************     ---------       -------
  Initial LID Storage ......         0.072         1.184
  Total Precipitation ......         1.641        27.097
  Evaporation Loss .........         0.000         0.000
  Infiltration Loss ........         0.177         2.919
  Surface Runoff ...........         1.140        18.816
  Final Storage ............         0.397         6.552
  Continuity Error (%) .....        -0.017
  
  
  **************************        Volume        Volume
  Flow Routing Continuity        hectare-m      10^6 ltr
  **************************     ---------     ---------
  Dry Weather Inflow .......         0.630         6.296
  Wet Weather Inflow .......         1.140        11.397
  Groundwater Inflow .......         0.000         0.000
  RDII Inflow ..............         0.000         0.000
  External Inflow ..........         0.105         1.045
  External Outflow .........         1.814        18.138
  Flooding Loss ............         0.221         2.213
  Evaporation Loss .........         0.000         0.000
  Exfiltration Loss ........         0.000         0.000
  Initial Stored Volume ....         0.303         3.031
  Final Stored Volume ......         0.196         1.964
  Continuity Error (%) .....        -2.511
  
  
  *************************
  Highest Continuity Errors
  *************************
  Node JK-storage (-26.57%)
  Node WS02006256 (-6.55%)
  Node YS02001884 (6.37%)
  Node HS02004842 (4.44%)
  Node YS02001774 (4.12%)
  
  
  ***************************
  Time-Step Critical Elements
  ***************************
  Link WS02006280WS02006229 (59.15%)
  Link WS02006238WS02006235 (12.83%)
  Link YS02001793JiankangQianchi (5.47%)
  Link WS02003066WSF200 (3.85%)
  Link WS02006252WS02006251 (3.52%)
  
  
  ********************************
  Highest Flow Instability Indexes
  ********************************
  Link WS02006113WS02006111 (30)
  Link WS02006256WS02006235 (25)
  Link WS02004404WS02004405 (20)
  Link WS02006238WS02006235 (17)
  Link WS02004403WS02004404 (17)
  
  
  *************************
  Routing Time Step Summary
  *************************
  Minimum Time Step           :     0.00 sec
  Average Time Step           :     2.71 sec
  Maximum Time Step           :     6.46 sec
  Percent in Steady State     :    -0.00
  Average Iterations per Step :     3.77
  Percent Not Converging      :    22.49
  
  
  ***************************
  Subcatchment Runoff Summary
  ***************************
  
  ------------------------------------------------------------------------------------------------------------------------------
                            Total      Total      Total      Total     Imperv       Perv      Total       Total     Peak  Runoff
                           Precip      Runon       Evap      Infil     Runoff     Runoff     Runoff      Runoff   Runoff   Coeff
  Subcatchment                 mm         mm         mm         mm         mm         mm         mm    10^6 ltr      LPS
  ------------------------------------------------------------------------------------------------------------------------------
  sub0                      27.10       0.00       0.00       0.90      23.94       1.00      24.94        0.02    14.59   0.920
  sub1                      27.10       0.00       0.00       1.34      20.50       1.33      21.83        0.15    83.55   0.806
  sub10                     27.10       0.00       0.00       0.86      19.22       0.90      20.12        0.22   134.74   0.742
  sub11                     27.10       0.00       0.00       0.79      17.87       0.85      18.71        0.22   143.53   0.691
  sub12                     27.10       0.00       0.00       1.38      18.17       1.48      19.65        0.17   122.21   0.725
  sub14                     27.10       0.00       0.00       0.86      16.92       0.91      17.83        0.17   109.48   0.658
  sub15                     27.10       0.00       0.00       3.82      15.21       3.05      18.25        0.31   175.22   0.674
  sub16                     27.10       0.00       0.00       4.08      14.84       3.62      18.46        0.19   119.69   0.681
  sub17                     27.10       0.00       0.00       4.36      16.38       3.75      20.13        0.17   103.54   0.743
  sub2                      27.10       0.00       0.00       5.86      14.97       3.42      18.40        0.17    79.78   0.679
  sub22                     27.10       0.00       0.00       6.70      14.20       4.59      18.79        1.19   623.45   0.693
  sub23                     27.10       0.00       0.00       5.09      14.62       3.96      18.58        0.89   498.85   0.686
  sub3                      27.10       0.00       0.00       6.15      14.81       3.05      17.86        0.40   168.47   0.659
  sub4                      27.10       0.00       0.00       1.45      20.13       1.19      21.31        0.44   186.93   0.786
  sub5                      27.10       0.00       0.00       0.77      19.83       0.81      20.64        0.23   138.47   0.762
  sub60                     27.10       0.00       0.00       1.23      17.47       1.28      18.76        0.25   163.46   0.692
  sub61                     27.10       0.00       0.00       1.88      17.46       1.89      19.35        0.36   232.87   0.714
  sub62                     27.10       0.00       0.00       0.83      18.60       0.87      19.48        0.53   321.41   0.719
  sub63                     27.10       0.00       0.00       3.42      14.95       3.01      17.97        0.41   246.97   0.663
  sub64                     27.10       0.00       0.00       1.64      17.01       1.52      18.54        0.45   250.13   0.684
  sub65                     27.10       0.00       0.00       1.51      18.36       1.39      19.74        0.54   289.05   0.729
  sub66                     27.10       0.00       0.00       3.88      14.43       2.35      16.78        0.78   347.84   0.619
  sub67                     27.10       0.00       0.00       0.83      19.08       0.91      20.00        0.37   262.26   0.738
  sub68                     27.10       0.00       0.00       1.44      16.85       1.45      18.30        0.50   316.42   0.675
  sub69                     27.10       0.00       0.00       1.26      18.18       1.96      20.14        0.75   385.55   0.743
  sub7                      27.10       0.00       0.00       0.91      18.14       0.98      19.12        0.06    43.47   0.705
  sub70                     27.10       0.00       0.00       4.10      14.54       3.44      17.98        0.52   205.51   0.664
  sub71                     27.10       0.00       0.00       0.77      16.89       0.78      17.67        0.46   259.54   0.652
  sub72                     27.10       0.00       0.00       0.73      18.23       0.72      18.95        0.26   129.37   0.699
  sub8                      27.10       0.00       0.00       0.89      17.62       0.95      18.57        0.12    77.16   0.685
  sub9                      27.10       0.00       0.00       0.86      17.08       0.92      18.00        0.09    56.17   0.664
  

  ***********************
  LID Performance Summary
  ***********************

  --------------------------------------------------------------------------------------------------------------------
                                         Total      Evap     Infil   Surface    Drain    Initial     Final  Continuity
                                        Inflow      Loss      Loss   Outflow   Outflow   Storage   Storage       Error
  Subcatchment      LID Control             mm        mm        mm        mm        mm        mm        mm           %
  --------------------------------------------------------------------------------------------------------------------
  sub1              GreenRoof            27.10      0.00      0.00      0.00      0.00      7.05     34.15       -0.00
  sub10             GreenRoof            27.10      0.00      0.00      0.00      0.00      7.05     34.15       -0.00
  sub11             GreenRoof            27.10      0.00      0.00      0.00      0.00      7.05     34.15       -0.00
  sub12             GreenRoof            27.10      0.00      0.00      0.00      0.00      7.05     34.15       -0.00
  sub14             GreenRoof            27.10      0.00      0.00      0.00      0.00      7.05     34.15       -0.00
  sub15             GreenRoof            27.10      0.00      0.00      0.00      0.00      7.05     34.15       -0.00
  sub16             GreenRoof            27.10      0.00      0.00      0.00      0.00      7.05     34.15       -0.00
  sub17             GreenRoof            27.10      0.00      0.00      0.00      0.00      7.05     34.15       -0.00
  sub2              GreenRoof            27.10      0.00      0.00      0.00      0.00      7.05     34.15       -0.00
  sub22             GreenRoof            27.10      0.00      0.00      0.00      0.00      7.05     34.15       -0.00
  sub23             GreenRoof            27.10      0.00      0.00      0.00      0.00      7.05     34.15       -0.00
  sub3              GreenRoof            27.10      0.00      0.00      0.00      0.00      7.05     34.15       -0.00
  sub4              GreenRoof            27.10      0.00      0.00      0.00      0.00      7.05     34.15       -0.00
  sub5              GreenRoof            27.10      0.00      0.00      0.00      0.00      7.05     34.15       -0.00
  sub60             GreenRoof            27.10      0.00      0.00      0.00      0.00      7.05     34.15       -0.00
  sub61             GreenRoof            27.10      0.00      0.00      0.00      0.00      7.05     34.15       -0.00
  sub62             GreenRoof            27.10      0.00      0.00      0.00      0.00      7.05     34.15       -0.00
  sub63             GreenRoof            27.10      0.00      0.00      0.00      0.00      7.05     34.15       -0.00
  sub64             GreenRoof            27.10      0.00      0.00      0.00      0.00      7.05     34.15       -0.00
  sub65             GreenRoof            27.10      0.00      0.00      0.00      0.00      7.05     34.15       -0.00
  sub66             GreenRoof            27.10      0.00      0.00      0.00      0.00      7.05     34.15       -0.00
  sub67             GreenRoof            27.10      0.00      0.00      0.00      0.00      7.05     34.15       -0.00
  sub68             GreenRoof            27.10      0.00      0.00      0.00      0.00      7.05     34.15       -0.00
  sub69             GreenRoof            27.10      0.00      0.00      0.00      0.00      7.05     34.15       -0.00
  sub7              GreenRoof            27.10      0.00      0.00      0.00      0.00      7.05     34.15       -0.00
  sub70             GreenRoof            27.10      0.00      0.00      0.00      0.00      7.05     34.15       -0.00
  sub71             GreenRoof            27.10      0.00      0.00      0.00      0.00      7.05     34.15       -0.00
  sub72             GreenRoof            27.10      0.00      0.00      0.00      0.00      7.05     34.15       -0.00
  sub8              GreenRoof            27.10      0.00      0.00      0.00      0.00      7.05     34.15       -0.00
  sub9              GreenRoof            27.10      0.00      0.00      0.00      0.00      7.05     34.15       -0.00
  
  ******************
  Node Depth Summary
  ******************
  
  ---------------------------------------------------------------------------------
                                 Average  Maximum  Maximum  Time of Max    Reported
                                   Depth    Depth      HGL   Occurrence   Max Depth
  Node                 Type       Meters   Meters   Meters  days hr:min      Meters
  ---------------------------------------------------------------------------------
  HS02004478           JUNCTION     0.14     0.80    10.03     0  02:06        0.80
  HS02004479           JUNCTION     0.21     0.97    10.17     0  02:06        0.96
  HS02004480           JUNCTION     0.18     0.93    10.17     0  02:05        0.92
  HS02004770           JUNCTION     0.18     1.15    10.98     0  02:03        0.81
  HS02004777           JUNCTION     0.21     1.06    10.86     0  02:03        0.81
  HS02004785           JUNCTION     0.11     0.67    10.57     0  02:05        0.66
  HS02004788           JUNCTION     0.08     0.64    10.54     0  02:05        0.64
  HS02004792           JUNCTION     0.12     1.27    10.79     0  02:01        0.96
  HS02004799           JUNCTION     0.23     1.08    10.30     0  02:05        1.07
  HS02004802           JUNCTION     0.23     0.93    10.06     0  02:02        0.90
  HS02004807           JUNCTION     0.20     1.24    10.41     0  02:02        0.86
  HS02004817           JUNCTION     0.49     1.19    10.04     0  02:06        1.19
  HS02004824           JUNCTION     0.08     0.64    10.04     0  02:05        0.64
  HS02004830           JUNCTION     0.08     0.57    10.04     0  02:06        0.57
  HS02004837           JUNCTION     0.06     0.45    10.03     0  02:06        0.45
  HS02004842           JUNCTION     0.34     0.77    10.04     0  02:05        0.76
  HS02004848           JUNCTION     0.04     0.39    10.00     0  02:06        0.39
  HS02004852           JUNCTION     0.04     0.42     9.93     0  02:06        0.41
  HS02004856           JUNCTION     0.10     0.45     9.87     0  02:06        0.45
  HS02004862           JUNCTION     0.06     0.39     9.78     0  02:07        0.39
  HS02004870           JUNCTION     0.05     0.36     9.65     0  02:09        0.36
  HS02004876           JUNCTION     0.09     0.63     9.66     0  02:08        0.63
  HS02004881           JUNCTION     0.04     0.57     9.60     0  02:08        0.57
  HS02004901           JUNCTION     0.19     1.20    11.02     0  02:03        0.82
  WS02001211           JUNCTION     0.61     0.81     5.65     0  02:07        0.80
  WS02001212           JUNCTION     0.35     0.57     5.63     0  02:06        0.57
  WS02001213           JUNCTION     0.55     0.87     5.63     0  02:06        0.84
  WS02003059           JUNCTION     0.62     0.93     5.61     0  02:09        0.92
  WS02003060           JUNCTION     0.34     0.66     5.59     0  02:09        0.66
  WS02003066           JUNCTION     0.20     0.43     5.99     0  02:07        0.43
  WS02003067           JUNCTION     0.49     0.89     6.21     0  02:01        0.87
  WS02003069           JUNCTION     0.38     0.74     5.33     0  02:10        0.74
  WS02003072           JUNCTION     0.44     0.78     5.15     0  02:08        0.78
  WS02003073           JUNCTION     0.26     0.50     4.56     0  02:09        0.49
  WS02004138           JUNCTION     0.13     0.14     7.39     0  00:32        0.14
  WS02004139           JUNCTION     0.55     0.73     5.64     0  02:06        0.73
  WS02004401           JUNCTION     0.66     2.12     8.12     0  02:00        2.12
  WS02004402           JUNCTION     0.68     2.04     8.00     0  02:00        2.04
  WS02004403           JUNCTION     0.69     1.92     7.85     0  02:00        1.92
  WS02004404           JUNCTION     0.76     1.93     7.78     0  01:59        1.90
  WS02004405           JUNCTION     0.75     1.85     7.70     0  01:59        1.81
  WS02004406           JUNCTION     0.75     1.65     7.48     0  01:59        1.58
  WS02004407           JUNCTION     0.21     0.75     7.06     0  02:03        0.75
  WS02004409           JUNCTION     0.44     1.27     7.04     0  02:03        1.27
  WS02004410           JUNCTION     0.45     1.20     6.92     0  02:03        1.19
  WS02004411           JUNCTION     0.46     1.15     6.83     0  02:01        1.13
  WS02004412           JUNCTION     0.47     1.08     6.72     0  02:01        1.05
  WS02004413           JUNCTION     0.61     1.17     6.64     0  02:01        1.17
  WS02006109           JUNCTION     0.82     2.59     9.21     0  02:00        2.59
  WS02006110           JUNCTION     0.78     2.76     9.34     0  01:59        2.46
  WS02006111           JUNCTION     0.31     2.48     9.19     0  01:59        1.92
  WS02006112           JUNCTION     0.85     2.68     8.56     0  01:59        2.61
  WS02006113           JUNCTION     0.39     2.73     9.62     0  01:59        1.96
  WS02006115           JUNCTION     0.57     2.23     8.37     0  02:00        2.23
  WS02006116           JUNCTION     0.65     2.23     8.27     0  02:00        2.23
  WS02006228           JUNCTION     0.85     2.77     9.42     0  02:03        2.77
  WS02006229           JUNCTION     0.84     2.90     9.59     0  02:06        2.89
  WS02006230           JUNCTION     0.79     2.65     9.39     0  02:00        2.65
  WS02006231           JUNCTION     0.53     2.24     9.36     0  02:00        2.24
  WS02006232           JUNCTION     0.62     2.18     9.22     0  02:00        2.18
  WS02006234           JUNCTION     0.50     1.96     9.12     0  01:57        1.96
  WS02006235           JUNCTION     0.52     2.00     9.16     0  01:57        2.00
  WS02006238           JUNCTION     0.54     2.15     9.29     0  02:00        2.15
  WS02006239           JUNCTION     0.48     2.03     9.24     0  02:00        2.03
  WS02006240           JUNCTION     0.44     2.10     9.39     0  01:57        2.10
  WS02006242           JUNCTION     0.47     1.55     8.82     0  01:57        1.55
  WS02006243           JUNCTION     0.38     1.48     8.90     0  01:57        1.48
  WS02006245           JUNCTION     0.37     1.56     9.04     0  01:57        1.51
  WS02006247           JUNCTION     0.38     1.47     8.97     0  01:57        1.41
  WS02006248           JUNCTION     0.33     1.10     8.69     0  01:57        1.10
  WS02006249           JUNCTION     0.35     1.09     8.69     0  01:57        1.09
  WS02006251           JUNCTION     0.38     2.21     9.88     0  02:03        1.77
  WS02006252           JUNCTION     0.25     1.50     9.74     0  00:00        1.32
  WS02006253           JUNCTION     0.43     2.28     9.92     0  02:33        1.97
  WS02006256           JUNCTION     0.78     2.35     9.28     0  00:00        2.35
  WS02006280           JUNCTION     0.20     1.37     9.65     0  02:05        1.37
  WS02006284           JUNCTION     0.46     1.42     9.82     0  02:05        1.42
  WS02006287           JUNCTION     0.20     1.05    10.01     0  02:06        1.05
  WSF200               JUNCTION     0.18     0.49     5.73     0  02:09        0.49
  YS02001580           JUNCTION     0.02     0.97     9.51     0  02:05        0.74
  YS02001583           JUNCTION     0.05     0.93     9.42     0  02:05        0.79
  YS02001586           JUNCTION     0.10     1.13     9.30     0  02:05        1.13
  YS02001590           JUNCTION     0.18     1.38     9.24     0  02:05        1.35
  YS02001593           JUNCTION     0.12     1.30     9.17     0  02:05        1.26
  YS02001596           JUNCTION     0.17     1.67     9.09     0  02:05        1.63
  YS02001600           JUNCTION     0.23     1.87     9.00     0  02:05        1.84
  YS02001601           JUNCTION     0.41     2.06     8.90     0  02:05        2.06
  YS02001602           JUNCTION     0.33     1.82     8.73     0  02:05        1.81
  YS02001605           JUNCTION     0.30     1.62     8.53     0  02:05        1.59
  YS02001607           JUNCTION     0.30     1.30     8.15     0  02:05        1.24
  YS02001610           JUNCTION     0.34     1.35     8.14     0  02:05        1.29
  YS02001613           JUNCTION     0.30     1.29     8.13     0  02:05        1.23
  YS02001616           JUNCTION     0.24     1.21     8.12     0  02:05        1.14
  YS02001619           JUNCTION     0.21     1.18     8.11     0  02:05        1.11
  YS02001622           JUNCTION     0.20     1.16     8.06     0  02:05        1.09
  YS02001625           JUNCTION     0.44     1.39     7.99     0  02:05        1.32
  YS02001629           JUNCTION     0.31     1.37     7.92     0  02:05        1.31
  YS02001633           JUNCTION     0.38     1.37     7.83     0  02:05        1.33
  YS02001641           JUNCTION     0.37     1.15     7.59     0  02:05        1.12
  YS02001644           JUNCTION     0.37     1.07     7.51     0  02:05        1.07
  YS02001647           JUNCTION     0.16     0.70     7.31     0  02:05        0.70
  YS02001649           JUNCTION     0.18     0.78     7.17     0  02:07        0.78
  YS02001652           JUNCTION     0.09     0.58     7.17     0  02:06        0.58
  YS02001655           JUNCTION     0.06     0.33     7.18     0  02:06        0.32
  YS02001658           JUNCTION     0.05     0.22     7.36     0  02:02        0.22
  YS02001661           JUNCTION     0.10     0.28     7.68     0  02:02        0.28
  YS02001664           JUNCTION     0.04     0.19     8.11     0  02:02        0.19
  YS02001745           JUNCTION     0.04     0.17     7.69     0  02:02        0.17
  YS02001748           JUNCTION     0.04     0.19     7.27     0  02:02        0.19
  YS02001751           JUNCTION     0.04     0.20     7.07     0  02:02        0.19
  YS02001754           JUNCTION     0.06     0.43     7.04     0  02:07        0.43
  YS02001757           JUNCTION     0.19     0.77     7.03     0  02:07        0.77
  YS02001759           JUNCTION     0.14     0.67     7.04     0  02:07        0.67
  YS02001762           JUNCTION     0.13     0.64     7.04     0  02:06        0.64
  YS02001765           JUNCTION     0.12     0.60     7.05     0  02:07        0.60
  YS02001767           JUNCTION     0.12     0.57     7.06     0  02:07        0.56
  YS02001770           JUNCTION     0.13     0.57     7.07     0  02:08        0.57
  YS02001774           JUNCTION     0.19     0.65     7.07     0  02:08        0.65
  YS02001779           JUNCTION     0.04     0.38     7.07     0  02:08        0.38
  YS02001783           JUNCTION     0.16     0.72     6.87     0  02:07        0.72
  YS02001784           JUNCTION     0.19     0.72     6.79     0  02:07        0.72
  YS02001786           JUNCTION     0.16     0.59     6.62     0  02:07        0.59
  YS02001788           JUNCTION     0.12     0.47     6.45     0  02:07        0.47
  YS02001790           JUNCTION     0.14     0.56     6.20     0  02:08        0.56
  YS02001791           JUNCTION     0.09     0.33     5.80     0  02:07        0.33
  YS02001793           JUNCTION     0.05     0.21     5.04     0  02:07        0.21
  YS02001882           JUNCTION     0.20     0.76     7.47     0  02:07        0.76
  YS02001884           JUNCTION     0.28     0.86     7.47     0  02:07        0.85
  YS02001887           JUNCTION     0.35     0.93     7.47     0  02:07        0.93
  YS02001890           JUNCTION     0.38     0.96     7.47     0  02:06        0.96
  YS02001895           JUNCTION     0.17     0.72     7.47     0  02:06        0.72
  YS02001898           JUNCTION     0.18     0.73     7.47     0  02:06        0.73
  YS02001901           JUNCTION     0.28     0.86     7.47     0  02:06        0.85
  YS02001904           JUNCTION     0.26     0.83     7.46     0  02:06        0.83
  YS02001907           JUNCTION     0.56     1.18     7.47     0  02:07        1.17
  YS02001910           JUNCTION     0.37     0.97     7.47     0  02:07        0.97
  YS02001915           JUNCTION     0.20     0.75     7.47     0  02:07        0.75
  YS02001918           JUNCTION     0.07     0.41     7.47     0  02:07        0.40
  YS02001920           JUNCTION     0.15     0.47     7.48     0  02:08        0.47
  YS02001923           JUNCTION     0.04     0.21     7.47     0  02:07        0.21
  YS02001926           JUNCTION     0.10     0.30     7.74     0  02:04        0.30
  YS02001929           JUNCTION     0.04     0.17     7.86     0  02:04        0.17
  YS02006553           JUNCTION     0.56     1.18     7.46     0  02:07        1.17
  YS02006556           JUNCTION     0.54     1.13     7.44     0  02:07        1.12
  YS02006558           JUNCTION     0.58     1.17     7.43     0  02:07        1.17
  YS02006561           JUNCTION     0.09     0.39     7.05     0  02:06        0.39
  YS02163301           JUNCTION     0.33     1.36     7.88     0  02:05        1.30
  YS02163601           JUNCTION     0.42     1.31     7.71     0  02:05        1.28
  YS02164001           JUNCTION     0.35     1.18     7.64     0  02:05        1.16
  YSB1154              JUNCTION     0.33     1.13    10.18     0  02:06        1.12
  YSB1171              JUNCTION     0.47     1.28    10.18     0  02:06        1.26
  YSB1174              JUNCTION     0.29     1.07    10.18     0  02:05        1.05
  YSB6556              JUNCTION     0.24     1.01    10.18     0  02:05        1.01
  CC-1                 OUTFALL      0.00     0.00     0.00     0  00:00        0.00
  CC-2                 OUTFALL      0.00     0.00     0.00     0  00:00        0.00
  JK-1                 OUTFALL      0.00     0.00     0.00     0  00:00        0.00
  JK-2                 OUTFALL      0.00     0.00     0.00     0  00:00        0.00
  WSC                  OUTFALL      0.26     0.49     1.16     0  02:10        0.49
  CC-storage           STORAGE      0.08     0.80     6.30     0  00:00        0.76
  JK-storage           STORAGE      0.05     2.99     3.79     0  00:00        0.68
  XR-storage           STORAGE      7.78     9.26     7.26     0  08:00        9.26
  
  
  *******************
  Node Inflow Summary
  *******************
  
  -------------------------------------------------------------------------------------------------
                                  Maximum  Maximum                  Lateral       Total        Flow
                                  Lateral    Total  Time of Max      Inflow      Inflow     Balance
                                   Inflow   Inflow   Occurrence      Volume      Volume       Error
  Node                 Type           LPS      LPS  days hr:min    10^6 ltr    10^6 ltr     Percent
  -------------------------------------------------------------------------------------------------
  HS02004478           JUNCTION      0.00  1759.07     0  02:02           0        4.19      -0.014
  HS02004479           JUNCTION      0.00   262.76     0  02:02           0       0.414       0.162
  HS02004480           JUNCTION      0.00  1632.46     0  02:04           0         3.2       0.082
  HS02004770           JUNCTION    498.85   613.47     0  02:02       0.886        1.08       0.286
  HS02004777           JUNCTION      0.03   629.14     0  02:04    0.000864        1.08       0.479
  HS02004785           JUNCTION      0.15   645.94     0  02:03     0.00432        1.08       0.044
  HS02004788           JUNCTION    176.89   752.85     0  02:04       0.362        1.44       0.027
  HS02004792           JUNCTION    623.73  1300.33     0  02:05        1.19        2.63       0.015
  HS02004799           JUNCTION    109.48  1399.06     0  02:05        0.17         2.8       0.091
  HS02004802           JUNCTION      0.00   329.59     0  02:16           0           1       0.404
  HS02004807           JUNCTION    143.53   313.29     0  02:00       0.217        1.02       0.412
  HS02004817           JUNCTION      0.60   261.68     0  02:17      0.0173       0.826       2.082
  HS02004824           JUNCTION    186.98   251.46     0  02:04       0.446       0.882       0.060
  HS02004830           JUNCTION      0.15   229.37     0  02:04     0.00432       0.509       0.243
  HS02004837           JUNCTION    141.09   348.12     0  02:03       0.405       0.601       0.135
  HS02004842           JUNCTION      0.00   333.75     0  02:06           0       0.293       4.645
  HS02004848           JUNCTION    168.47   499.79     0  02:06       0.402       0.568       0.007
  HS02004852           JUNCTION      0.00   494.58     0  02:06           0       0.455       0.011
  HS02004856           JUNCTION     56.17   536.76     0  02:06      0.0866       0.541       0.265
  HS02004862           JUNCTION     79.98   612.40     0  02:07       0.177       0.717       0.023
  HS02004870           JUNCTION     77.16   669.76     0  02:07       0.119       0.836       0.012
  HS02004876           JUNCTION     83.55   735.10     0  02:06       0.145       0.981       0.052
  HS02004881           JUNCTION     43.47   728.43     0  02:07      0.0644        1.04       0.042
  HS02004901           JUNCTION    119.69   119.69     0  02:02       0.193       0.193       0.908
  WS02001211           JUNCTION      7.35   278.66     0  02:05       0.212        5.44       0.610
  WS02001212           JUNCTION      0.00   256.43     0  02:08           0        5.41       0.273
  WS02001213           JUNCTION      0.00   247.87     0  02:08           0         5.4       0.345
  WS02003059           JUNCTION      0.00   233.88     0  02:08           0         5.4       0.594
  WS02003060           JUNCTION     16.53  1429.15     0  02:09       0.476          11       0.132
  WS02003066           JUNCTION      0.00  1193.70     0  02:04           0        5.21       0.030
  WS02003067           JUNCTION      0.00  1192.10     0  02:04           0        5.22       0.082
  WS02003069           JUNCTION      0.32  1409.77     0  02:09     0.00922          11       0.140
  WS02003072           JUNCTION      0.00  1404.58     0  02:10           0          11       0.190
  WS02003073           JUNCTION      1.82  1403.07     0  02:11      0.0524          11       0.195
  WS02004138           JUNCTION      0.00   380.00     0  00:00           0        5.25       0.053
  WS02004139           JUNCTION      0.32   191.30     0  02:04     0.00924        5.26       0.508
  WS02004401           JUNCTION      0.00  1204.85     0  02:02           0        5.32       0.202
  WS02004402           JUNCTION      0.00  1206.11     0  02:02           0        5.31       0.205
  WS02004403           JUNCTION      0.00  1207.40     0  02:02           0         5.3       0.198
  WS02004404           JUNCTION      0.16  1209.14     0  02:02     0.00467        5.29       0.169
  WS02004405           JUNCTION      0.04  1211.64     0  02:01      0.0011        5.29       0.239
  WS02004406           JUNCTION      0.00  1213.38     0  02:01           0        5.27       0.406
  WS02004407           JUNCTION      0.00  1214.05     0  02:01           0        5.25       0.027
  WS02004409           JUNCTION      0.00  1191.69     0  02:04           0        5.25       0.060
  WS02004410           JUNCTION      0.00  1191.47     0  02:04           0        5.25       0.092
  WS02004411           JUNCTION      0.00  1191.71     0  02:04           0        5.24       0.113
  WS02004412           JUNCTION      0.00  1191.36     0  02:04           0        5.24       0.149
  WS02004413           JUNCTION      0.00  1191.83     0  02:04           0        5.23       0.272
  WS02006109           JUNCTION      1.23  1131.10     0  01:59      0.0354         5.2       0.192
  WS02006110           JUNCTION      0.00  1130.86     0  01:59           0        5.19       0.149
  WS02006111           JUNCTION      0.00  1102.44     0  02:02           0        5.18       0.011
  WS02006112           JUNCTION    103.54  1205.07     0  02:02       0.173        5.35       0.385
  WS02006113           JUNCTION      0.00  1131.60     0  01:59           0        5.18       0.045
  WS02006115           JUNCTION      0.00  1203.99     0  02:02           0        5.33       0.140
  WS02006116           JUNCTION      0.00  1203.42     0  02:02           0        5.32       0.047
  WS02006228           JUNCTION      0.00  1129.93     0  01:59           0        5.17       0.087
  WS02006229           JUNCTION      0.00  1706.92     0  02:06           0        5.79       0.135
  WS02006230           JUNCTION     10.28   623.47     0  02:06       0.296        2.24       0.342
  WS02006231           JUNCTION      0.00   453.20     0  02:06           0        1.85      -0.099
  WS02006232           JUNCTION      0.00   453.28     0  02:06           0        1.83       0.274
  WS02006234           JUNCTION      0.00   453.04     0  02:06           0        1.81      -0.337
  WS02006235           JUNCTION      0.00   448.32     0  03:04           0        1.83       0.254
  WS02006238           JUNCTION      0.00   405.79     0  02:12           0         1.7      -0.389
  WS02006239           JUNCTION      0.00   405.51     0  02:07           0        1.64      -0.355
  WS02006240           JUNCTION      0.00   406.02     0  02:07           0        1.62      -0.052
  WS02006242           JUNCTION      0.00   406.60     0  02:07           0        1.62      -0.067
  WS02006243           JUNCTION      0.00   408.04     0  03:03           0        1.49      -0.476
  WS02006245           JUNCTION      0.00   465.64     0  01:57           0         1.5       0.712
  WS02006247           JUNCTION      0.00   494.80     0  01:57           0        1.49      -0.160
  WS02006248           JUNCTION      0.00   547.99     0  01:57           0        1.61      -0.079
  WS02006249           JUNCTION      0.00  1121.49     0  02:09           0        2.57       0.268
  WS02006251           JUNCTION      0.08  1121.96     0  02:09     0.00222        2.62      -0.049
  WS02006252           JUNCTION      0.00   400.00     0  00:00           0         1.5      -0.313
  WS02006253           JUNCTION     14.59   721.72     0  02:09      0.0202        1.11      -0.014
  WS02006256           JUNCTION      0.00   300.00     0  00:00           0       0.322      -6.149
  WS02006280           JUNCTION      0.00  1705.94     0  02:06           0        4.19       0.015
  WS02006284           JUNCTION      0.10  1705.78     0  02:06     0.00275        4.19       0.026
  WS02006287           JUNCTION      0.00  1705.38     0  02:06           0        4.19       0.018
  WSF200               JUNCTION      0.00  1192.93     0  02:04           0        5.21       0.011
  YS02001580           JUNCTION      0.00    63.92     0  02:05           0     0.00394       0.687
  YS02001583           JUNCTION      0.00    90.17     0  02:05           0       0.015      -3.753
  YS02001586           JUNCTION    205.51   224.49     0  02:06       0.519       0.531       0.205
  YS02001590           JUNCTION      0.00   224.61     0  02:06           0       0.519      -0.027
  YS02001593           JUNCTION      0.00   224.72     0  02:06           0       0.519       0.029
  YS02001596           JUNCTION      0.00   225.06     0  02:06           0       0.519      -0.011
  YS02001600           JUNCTION      0.00   224.89     0  02:06           0       0.519       0.026
  YS02001601           JUNCTION    385.55   583.23     0  02:06       0.745        1.26       0.074
  YS02001602           JUNCTION      0.00   514.22     0  02:08           0        1.26       0.034
  YS02001605           JUNCTION      0.00   514.42     0  02:08           0        1.25       0.043
  YS02001607           JUNCTION      0.00   514.40     0  02:08           0        1.25       0.140
  YS02001610           JUNCTION      0.00   514.93     0  02:08           0        1.25       0.176
  YS02001613           JUNCTION      0.00   518.40     0  02:04           0        1.25       0.128
  YS02001616           JUNCTION      0.00   515.28     0  02:08           0        1.25       0.030
  YS02001619           JUNCTION    347.84   858.94     0  02:04       0.782        2.03       0.000
  YS02001622           JUNCTION      0.00   854.63     0  02:04           0        2.03       0.006
  YS02001625           JUNCTION      0.00   854.45     0  02:05           0        2.03       0.438
  YS02001629           JUNCTION      0.00   855.00     0  02:05           0        2.02       0.040
  YS02001633           JUNCTION    289.25  1147.48     0  02:05       0.549        2.57       0.133
  YS02001641           JUNCTION      0.00  1148.60     0  02:05           0        2.57       0.109
  YS02001644           JUNCTION    250.16  1382.03     0  02:05       0.446        3.01       0.110
  YS02001647           JUNCTION      0.00  1381.58     0  02:05           0           3       0.011
  YS02001649           JUNCTION      0.00  1577.03     0  02:07           0        3.41       0.009
  YS02001652           JUNCTION      0.00   247.32     0  02:02           0       0.411      -0.250
  YS02001655           JUNCTION      0.15   247.71     0  02:02     0.00443       0.412       0.186
  YS02001658           JUNCTION      0.00   247.30     0  02:02           0       0.408      -0.004
  YS02001661           JUNCTION      0.00   246.87     0  02:02           0       0.408       0.082
  YS02001664           JUNCTION    246.97   246.97     0  02:02       0.408       0.408      -0.009
  YS02001745           JUNCTION    163.46   163.46     0  02:02       0.247       0.247      -0.002
  YS02001748           JUNCTION      0.04   163.36     0  02:02      0.0013       0.248      -0.001
  YS02001751           JUNCTION      0.01   163.61     0  02:02    0.000317       0.248       0.372
  YS02001754           JUNCTION      0.26   167.67     0  02:03     0.00749       0.255      -0.446
  YS02001757           JUNCTION      0.00  2146.56     0  02:07           0        4.58       0.013
  YS02001759           JUNCTION    232.91   462.10     0  02:04       0.356       0.908      -0.004
  YS02001762           JUNCTION      0.00   281.17     0  02:09           0       0.552       0.028
  YS02001765           JUNCTION      0.00   272.99     0  02:05           0       0.552       0.025
  YS02001767           JUNCTION      0.54   282.53     0  02:03      0.0154       0.552       0.043
  YS02001770           JUNCTION    321.56   321.56     0  02:03       0.538       0.559      -0.004
  YS02001774           JUNCTION      0.00    31.54     0  02:01           0      0.0283       4.298
  YS02001779           JUNCTION      0.01    11.87     0  02:01    0.000144     0.00629       0.095
  YS02001783           JUNCTION      0.00   797.10     0  02:07           0        1.65       0.017
  YS02001784           JUNCTION      1.06   797.98     0  02:07      0.0305        1.68       0.031
  YS02001786           JUNCTION      0.06   797.52     0  02:07     0.00162        1.68       0.039
  YS02001788           JUNCTION      0.07   797.64     0  02:07     0.00204        1.68       0.018
  YS02001790           JUNCTION      0.15   797.57     0  02:07     0.00446        1.69       0.022
  YS02001791           JUNCTION      0.00   832.65     0  02:08           0        1.69       0.011
  YS02001793           JUNCTION      0.00   799.95     0  02:08           0        1.69      -0.081
  YS02001882           JUNCTION      0.00    16.54     0  02:01           0     0.00964       6.930
  YS02001884           JUNCTION      0.00    44.47     0  02:01           0      0.0391       6.808
  YS02001887           JUNCTION    262.71   262.71     0  02:02       0.385       0.412       1.098
  YS02001890           JUNCTION      0.00   230.15     0  02:03           0       0.377       1.372
  YS02001895           JUNCTION      0.00   219.41     0  02:03           0       0.372       0.364
  YS02001898           JUNCTION      0.00   206.08     0  02:03           0       0.371       0.143
  YS02001901           JUNCTION      0.00   196.95     0  02:12           0       0.373       0.858
  YS02001904           JUNCTION      0.00   210.00     0  02:12           0       0.378       0.775
  YS02001907           JUNCTION      0.00   574.04     0  02:11           0        1.18       1.552
  YS02001910           JUNCTION      0.00   364.41     0  02:09           0       0.805       0.892
  YS02001915           JUNCTION    259.56   365.14     0  02:05       0.463       0.807       0.208
  YS02001918           JUNCTION      0.00   145.22     0  02:08           0       0.344       0.089
  YS02001920           JUNCTION      2.87   140.37     0  02:06      0.0827       0.346       0.306
  YS02001923           JUNCTION      0.04   128.93     0  02:04     0.00109       0.263       0.002
  YS02001926           JUNCTION      0.05   129.32     0  02:04      0.0015       0.262       0.082
  YS02001929           JUNCTION    129.37   129.37     0  02:04       0.261       0.261      -0.007
  YS02006553           JUNCTION      0.00   574.14     0  02:11           0        1.17       1.017
  YS02006556           JUNCTION      0.00   574.66     0  02:11           0        1.17       0.708
  YS02006558           JUNCTION    317.30   798.59     0  02:07       0.529        1.68       0.201
  YS02006561           JUNCTION      0.00   796.61     0  02:07           0        1.65       0.006
  YS02163301           JUNCTION      0.00   870.45     0  02:06           0        2.02       0.077
  YS02163601           JUNCTION      0.11  1147.48     0  02:05     0.00317        2.57       0.188
  YS02164001           JUNCTION      0.00  1147.46     0  02:05           0        2.57       0.093
  YSB1154              JUNCTION    138.47   138.47     0  02:03       0.234       0.235       0.618
  YSB1171              JUNCTION      0.00   261.95     0  02:02           0       0.414       1.555
  YSB1174              JUNCTION    122.21   122.21     0  02:02       0.172       0.172       0.740
  YSB6556              JUNCTION      0.00   138.56     0  02:02           0       0.236       0.517
  CC-1                 OUTFALL       0.00   683.00     0  00:00           0        2.55       0.000
  CC-2                 OUTFALL       0.00   683.00     0  00:00           0        2.55       0.000
  JK-1                 OUTFALL       0.00  1000.00     0  00:00           0        1.01       0.000
  JK-2                 OUTFALL       0.00  1000.00     0  00:00           0        1.01       0.000
  WSC                  OUTFALL       0.00  1403.72     0  02:10           0          11       0.000
  CC-storage           STORAGE       0.00  2134.23     0  02:07           0        6.81      -0.605
  JK-storage           STORAGE       0.00   891.96     0  02:08           0        1.84     -20.989
  XR-storage           STORAGE     200.00   200.00     0  00:00        5.76        6.36       0.001
  
  
  **********************
  Node Surcharge Summary
  **********************
  
  Surcharging occurs when water rises above the top of the highest conduit.
  ---------------------------------------------------------------------
                                               Max. Height   Min. Depth
                                   Hours       Above Crown    Below Rim
  Node                 Type      Surcharged         Meters       Meters
  ---------------------------------------------------------------------
  HS02004479           JUNCTION        0.14          0.166        0.884
  HS02004480           JUNCTION        0.18          0.216        0.884
  HS02004770           JUNCTION        0.08          0.449        0.271
  HS02004777           JUNCTION        0.09          0.360        0.420
  HS02004792           JUNCTION        0.15          0.571        0.329
  HS02004799           JUNCTION        0.24          0.384        0.676
  HS02004802           JUNCTION        0.18          0.222        0.988
  HS02004807           JUNCTION        0.17          0.540        0.680
  HS02004817           JUNCTION        0.55          0.495        1.245
  HS02004842           JUNCTION        0.09          0.072        1.448
  HS02004901           JUNCTION        0.09          0.501        0.219
  WS02004401           JUNCTION        0.72          1.123        0.537
  WS02004402           JUNCTION        0.74          1.040        0.700
  WS02004403           JUNCTION        0.75          0.918        1.112
  WS02004404           JUNCTION        0.94          0.931        1.849
  WS02004405           JUNCTION        0.92          0.850        1.950
  WS02004406           JUNCTION        0.88          0.655        1.795
  WS02004409           JUNCTION        0.35          0.270        2.090
  WS02004410           JUNCTION        0.33          0.199        2.341
  WS02004411           JUNCTION        0.31          0.150        2.380
  WS02004412           JUNCTION        0.25          0.083        2.227
  WS02004413           JUNCTION        0.54          0.167        2.033
  WS02006109           JUNCTION        1.31          1.771        0.049
  WS02006110           JUNCTION        1.00          1.850        0.000
  WS02006111           JUNCTION        0.50          1.674        0.196
  WS02006112           JUNCTION        1.05          1.680        0.000
  WS02006113           JUNCTION        0.51          1.930        0.000
  WS02006115           JUNCTION        0.67          1.221        1.029
  WS02006116           JUNCTION        0.68          1.166        1.124
  WS02006228           JUNCTION        1.28          1.944        0.256
  WS02006229           JUNCTION        0.33          0.717        0.353
  WS02006230           JUNCTION        0.84          1.570        0.000
  WS02006231           JUNCTION        0.84          1.530        0.000
  WS02006232           JUNCTION        1.15          1.480        0.000
  WS02006234           JUNCTION        0.80          1.240        0.000
  WS02006235           JUNCTION        0.92          1.290        0.000
  WS02006238           JUNCTION        1.00          1.430        0.000
  WS02006239           JUNCTION        0.87          1.290        0.000
  WS02006240           JUNCTION        0.85          1.390        0.000
  WS02006242           JUNCTION        1.00          0.820        0.000
  WS02006243           JUNCTION        0.84          0.770        0.000
  WS02006245           JUNCTION        0.83          0.850        0.000
  WS02006247           JUNCTION        0.86          0.760        0.000
  WS02006248           JUNCTION        0.79          0.380        0.000
  WS02006249           JUNCTION        0.83          0.390        0.000
  WS02006251           JUNCTION        0.54          1.180        0.000
  WS02006252           JUNCTION        1.09          1.100        0.000
  WS02006253           JUNCTION        0.54          1.240        1.240
  WS02006256           JUNCTION        5.57          2.050        0.000
  WS02006280           JUNCTION        0.26          0.324        0.456
  WS02006284           JUNCTION        0.20          0.140        0.660
  WS02006287           JUNCTION        0.10          0.054        0.836
  YS02001580           JUNCTION        0.01          0.373        0.077
  YS02001583           JUNCTION        0.01          0.288        0.212
  YS02001586           JUNCTION        0.13          0.510        0.000
  YS02001590           JUNCTION        0.21          0.731        0.019
  YS02001593           JUNCTION        0.21          0.685        0.155
  YS02001596           JUNCTION        0.30          0.942        0.128
  YS02001600           JUNCTION        0.39          1.190        0.000
  YS02001601           JUNCTION        0.66          1.440        0.000
  YS02001602           JUNCTION        0.56          1.225        0.045
  YS02001605           JUNCTION        0.52          1.024        0.156
  YS02001607           JUNCTION        0.15          0.305        0.375
  YS02001610           JUNCTION        0.17          0.345        0.335
  YS02001613           JUNCTION        0.14          0.291        0.409
  YS02001616           JUNCTION        0.09          0.209        0.401
  YS02001619           JUNCTION        0.07          0.179        0.431
  YS02001622           JUNCTION        0.06          0.159        0.461
  YS02001625           JUNCTION        0.25          0.387        0.393
  YS02001633           JUNCTION        0.26          0.352        0.708
  YS02001641           JUNCTION        0.17          0.150        0.950
  YS02001644           JUNCTION        0.11          0.074        0.846
  YS02001907           JUNCTION        0.22          0.169        0.781
  YS02006553           JUNCTION        0.24          0.177        1.013
  YS02006556           JUNCTION        0.14          0.090        1.260
  YS02006558           JUNCTION        0.13          0.065        1.335
  YS02163301           JUNCTION        0.24          0.361        0.669
  YS02163601           JUNCTION        0.28          0.314        0.766
  YS02164001           JUNCTION        0.18          0.180        0.920
  YSB1154              JUNCTION        0.32          0.425        0.975
  YSB1171              JUNCTION        0.32          0.428        0.672
  YSB1174              JUNCTION        0.27          0.369        0.881
  YSB6556              JUNCTION        0.23          0.313        0.787
  
  
  *********************
  Node Flooding Summary
  *********************
  
  Flooding refers to all water that overflows a node, whether it ponds or not.
  --------------------------------------------------------------------------
                                                             Total   Maximum
                                 Maximum   Time of Max       Flood    Ponded
                        Hours       Rate    Occurrence      Volume     Depth
  Node                 Flooded       LPS   days hr:min    10^6 ltr    Meters
  --------------------------------------------------------------------------
  WS02006110              0.01     50.89      0  01:59       0.000     0.000
  WS02006112              0.01     33.41      0  01:59       0.000     0.000
  WS02006113              0.01    126.93      0  01:59       0.000     0.000
  WS02006230              0.21    170.68      0  02:06       0.086     0.000
  WS02006231              0.01      0.64      0  02:00       0.000     0.000
  WS02006232              0.07     25.69      0  02:47       0.000     0.000
  WS02006234              0.25     77.88      0  02:07       0.045     0.000
  WS02006235              0.01     94.62      0  01:57       0.000     0.000
  WS02006238              0.01     35.91      0  02:47       0.000     0.000
  WS02006239              0.01      4.83      0  02:36       0.000     0.000
  WS02006240              0.01    148.30      0  01:57       0.000     0.000
  WS02006242              0.36    188.14      0  01:58       0.126     0.000
  WS02006243              0.01    178.26      0  01:57       0.001     0.000
  WS02006245              0.01    140.44      0  01:57       0.000     0.000
  WS02006247              0.01     57.28      0  01:57       0.000     0.000
  WS02006248              0.51    353.52      0  02:03       0.457     0.000
  WS02006249              0.56   1058.03      0  02:09       1.285     0.000
  WS02006251              0.01     42.14      0  02:03       0.000     0.000
  WS02006252              0.01    302.34      0  02:03       0.002     0.000
  WS02006256              0.29    298.58      0  02:10       0.202     0.000
  YS02001586              0.01     16.58      0  02:05       0.000     0.000
  YS02001600              0.01      1.08      0  02:05       0.000     0.000
  YS02001601              0.06     89.31      0  02:06       0.008     0.000
  
  
  **********************
  Storage Volume Summary
  **********************
  
  --------------------------------------------------------------------------------------------------
                         Average     Avg  Evap Exfil       Maximum     Max    Time of Max    Maximum
                          Volume    Pcnt  Pcnt  Pcnt        Volume    Pcnt     Occurrence    Outflow
  Storage Unit           1000 m3    Full  Loss  Loss       1000 m3    Full    days hr:min        LPS
  --------------------------------------------------------------------------------------------------
  CC-storage               0.229       4     0     0         2.229      35       0  00:00    1783.53
  JK-storage               0.003       1     0     0         0.150      52       0  00:00    2300.00
  XR-storage               0.934      65     0     0         1.111      77       0  08:00     380.00
  
  
  ***********************
  Outfall Loading Summary
  ***********************
  
  -----------------------------------------------------------
                         Flow       Avg       Max       Total
                         Freq      Flow      Flow      Volume
  Outfall Node           Pcnt       LPS       LPS    10^6 ltr
  -----------------------------------------------------------
  CC-1                  24.37    683.00    683.00       2.555
  CC-2                  24.37    683.00    683.00       2.555
  JK-1                   6.67    978.46   1000.00       1.006
  JK-2                   6.67    978.46   1000.00       1.006
  WSC                   99.94    498.61   1403.72      11.017
  -----------------------------------------------------------
  System                32.41   3821.52   1403.72      18.138
  
  
  ********************
  Link Flow Summary
  ********************
  
  -----------------------------------------------------------------------------
                                 Maximum  Time of Max   Maximum    Max/    Max/
                                  |Flow|   Occurrence   |Veloc|    Full    Full
  Link                 Type          LPS  days hr:min     m/sec    Flow   Depth
  -----------------------------------------------------------------------------
  1                    CONDUIT   1403.72     0  02:10      3.64    0.49    0.49
  HS02004478WS02006287 CONDUIT   1705.38     0  02:06      2.56    0.48    0.93
  HS02004479HS02004480 CONDUIT    273.20     0  02:01      0.39    0.26    1.00
  HS02004480HS02004478 CONDUIT   1631.16     0  02:04      2.35    6.87    1.00
  HS02004770HS02004777 CONDUIT    629.11     0  02:04      0.90    1.15    1.00
  HS02004777HS02004785 CONDUIT    645.79     0  02:03      1.03    0.79    0.98
  HS02004785HS02004788 CONDUIT    580.50     0  02:04      1.37    4.38    0.93
  HS02004788HS02004792 CONDUIT    739.08     0  02:07      1.46    0.49    0.95
  HS02004792HS02004799 CONDUIT   1300.61     0  02:05      1.86    0.80    1.00
  HS02004799HS02004480 CONDUIT   1398.46     0  02:05      2.00    1.77    1.00
  HS02004802HS02004478 CONDUIT    346.30     0  02:16      0.69    0.31    1.00
  HS02004807HS02004802 CONDUIT    329.59     0  02:16      0.61    0.63    1.00
  HS02004817HS02004807 CONDUIT    261.80     0  02:17      0.43    0.16    1.00
  HS02004817HS02004824 CONDUIT    261.08     0  02:17      0.53    0.12    0.95
  HS02004824HS02004830 CONDUIT    229.22     0  02:04      0.63    0.30    0.86
  HS02004830HS02004837 CONDUIT    212.56     0  02:05      0.74    0.21    0.73
  HS02004837HS02004842 CONDUIT    333.75     0  02:06      0.62    0.20    0.82
  HS02004842HS02004848 CONDUIT    333.01     0  02:06      0.61    0.19    0.78
  HS02004848HS02004852 CONDUIT    494.58     0  02:06      1.25    0.56    0.58
  HS02004852HS02004856 CONDUIT    493.12     0  02:07      1.15    0.56    0.62
  HS02004856HS02004862 CONDUIT    537.42     0  02:07      1.40    0.54    0.55
  HS02004862HS02004870 CONDUIT    610.48     0  02:07      1.66    0.66    0.54
  HS02004870HS02004876 CONDUIT    658.84     0  02:06      1.64    0.44    0.71
  HS02004876HS02004881 CONDUIT    698.41     0  02:07      2.10    7.43    0.86
  HS02004881HS02006253 CONDUIT    713.85     0  02:09      2.82    0.14    0.91
  HS02004901HS02004770 CONDUIT    119.81     0  02:04      0.17    0.45    1.00
  WS02001211WS02001212 CONDUIT    256.43     0  02:08      0.54    0.20    0.67
  WS02001212WS02001213 CONDUIT    247.87     0  02:08      1.04    0.38    0.55
  WS02001213WS02003059 CONDUIT    233.88     0  02:08      0.47    0.39    0.87
  WS02003059WS02003060 CONDUIT    246.55     0  02:09      0.66    0.16    0.79
  WS02003060WS02003069 CONDUIT   1409.45     0  02:09      2.06    0.55    0.58
  WS02003066WSF200     CONDUIT   1192.93     0  02:04      3.44    0.20    0.36
  WS02003067WS02003066 CONDUIT   1193.70     0  02:04      1.93    0.38    0.54
  WS02003069WS02003072 CONDUIT   1404.58     0  02:10      1.85    0.68    0.64
  WS02003072WS02003073 CONDUIT   1401.25     0  02:11      2.00    3.03    0.60
  WS02004138WS02004139 CONDUIT    190.00     0  00:32      2.16    0.04    0.41
  WS02004139WS02001211 CONDUIT    271.31     0  02:05      0.54    0.34    0.59
  WS02004401WS02004402 CONDUIT   1206.11     0  02:02      1.54    1.45    1.00
  WS02004402WS02004403 CONDUIT   1207.40     0  02:02      1.54    1.73    1.00
  WS02004403WS02004404 CONDUIT   1208.98     0  02:02      1.54    0.87    1.00
  WS02004404WS02004405 CONDUIT   1211.60     0  02:01      1.54   11.87    1.00
  WS02004405WS02004406 CONDUIT   1213.38     0  02:01      1.54    2.39    1.00
  WS02004406WS02004407 CONDUIT   1214.05     0  02:01      1.93    0.54    0.88
  WS02004407WS02004409 CONDUIT   1191.69     0  02:04      2.02    0.42    0.88
  WS02004409WS02004410 CONDUIT   1191.47     0  02:04      1.52    1.54    1.00
  WS02004410WS02004411 CONDUIT   1191.71     0  02:04      1.52    1.63    1.00
  WS02004411WS02004412 CONDUIT   1191.36     0  02:04      1.52    1.69    1.00
  WS02004412WS02004413 CONDUIT   1191.83     0  02:04      1.52    0.80    1.00
  WS02004413WS02003067 CONDUIT   1192.10     0  02:04      1.88    0.51    0.75
  WS02006109WS02006110 CONDUIT   1130.86     0  01:59      2.25    2.17    1.00
  WS02006110WS02006113 CONDUIT   1131.60     0  01:59      2.26    1.03    1.00
  WS02006111WS02006112 CONDUIT   1101.54     0  02:02      2.19    0.52    1.00
  WS02006112WS02006115 CONDUIT   1203.99     0  02:02      1.53    0.71    1.00
  WS02006113WS02006111 CONDUIT   1102.44     0  02:02      2.67    1.32    1.00
  WS02006115WS02006116 CONDUIT   1203.42     0  02:02      1.53    1.54    1.00
  WS02006116WS02004401 CONDUIT   1204.85     0  02:02      1.53    1.66    1.00
  WS02006228WS02006109 CONDUIT   1129.87     0  01:59      2.25    4.94    1.00
  WS02006229WS02006228 CONDUIT   1129.93     0  01:59      2.25    3.74    1.00
  WS02006230WS02006229 CONDUIT    613.19     0  02:06      1.59   13.65    1.00
  WS02006231WS02006230 CONDUIT    453.20     0  02:06      1.38    6.87    1.00
  WS02006232WS02006231 CONDUIT    453.28     0  02:06      1.18    0.95    1.00
  WS02006234WS02006232 CONDUIT    453.04     0  02:06      1.39    0.92    1.00
  WS02006235WS02006234 CONDUIT    410.25     0  02:11      1.21    4.33    1.00
  WS02006238WS02006235 CONDUIT    405.79     0  02:12      1.45    0.91    1.00
  WS02006239WS02006238 CONDUIT    405.51     0  02:07      1.10    1.30    1.00
  WS02006240WS02006239 CONDUIT    406.02     0  02:07      1.25    1.28    1.00
  WS02006242WS02006240 CONDUIT    406.60     0  02:07      1.15    1.61    1.00
  WS02006243WS02006242 CONDUIT    396.84     0  00:21      1.32    0.85    1.00
  WS02006245WS02006243 CONDUIT    408.04     0  03:03      1.38    1.21    1.00
  WS02006247WS02006245 CONDUIT    465.64     0  01:57      1.37    3.69    1.00
  WS02006248WS02006247 CONDUIT    494.80     0  01:57      1.41    1.08    1.00
  WS02006249WS02006248 CONDUIT    547.99     0  01:57      1.52    3.00    1.00
  WS02006251WS02006249 CONDUIT   1121.49     0  02:09      2.91    3.23    1.00
  WS02006252WS02006251 CONDUIT    416.17     0  02:33      4.83    1.53    1.00
  WS02006253WS02006251 CONDUIT    721.45     0  02:09      1.87    2.16    1.00
  WS02006256WS02006235 CONDUIT    288.93     0  00:00      4.23    3.06    1.00
  WS02006280WS02006229 CONDUIT   1706.92     0  02:06      4.57    0.36    1.00
  WS02006284WS02006280 CONDUIT   1705.94     0  02:06      3.01    0.71    1.00
  WS02006287WS02006284 CONDUIT   1705.68     0  02:06      2.77    0.79    1.00
  WSF200WS02003060     CONDUIT   1204.49     0  02:05      2.60    0.27    0.48
  YS02001580YS02001583 CONDUIT     63.92     0  02:05      0.54    0.25    1.00
  YS02001583YS02001586 CONDUIT     87.95     0  02:04      0.38    0.13    1.00
  YS02001586YS02001590 CONDUIT    224.61     0  02:06      1.29    0.39    1.00
  YS02001590YS02001593 CONDUIT    224.72     0  02:06      1.02    1.41    1.00
  YS02001593YS02001596 CONDUIT    225.06     0  02:06      1.67    0.36    1.00
  YS02001596YS02001600 CONDUIT    224.89     0  02:06      1.17    0.44    1.00
  YS02001600YS02001601 CONDUIT    225.24     0  02:06      0.80    0.39    1.00
  YS02001601YS02001602 CONDUIT    514.22     0  02:08      1.82    1.86    1.00
  YS02001602YS02001605 CONDUIT    514.42     0  02:08      1.82   10.89    1.00
  YS02001605YS02001607 CONDUIT    514.40     0  02:08      1.82    2.82    1.00
  YS02001607YS02001610 CONDUIT    514.93     0  02:08      0.68    0.49    1.00
  YS02001610YS02001613 CONDUIT    518.40     0  02:04      0.66    0.60    1.00
  YS02001613YS02001616 CONDUIT    515.28     0  02:08      0.66    0.44    1.00
  YS02001616YS02001619 CONDUIT    515.50     0  02:08      0.70    0.89    1.00
  YS02001619YS02001622 CONDUIT    854.63     0  02:04      1.27    1.26    1.00
  YS02001622YS02001625 CONDUIT    854.45     0  02:05      1.09    0.46    1.00
  YS02001625YS02001629 CONDUIT    855.00     0  02:05      1.11    0.41    0.99
  YS02001629YS02163301 CONDUIT    870.45     0  02:06      1.11    1.07    1.00
  YS02001633YS02163601 CONDUIT   1147.37     0  02:05      1.46    1.20    1.00
  YS02001641YS02001644 CONDUIT   1149.49     0  02:05      1.46    3.72    1.00
  YS02001644YS02001647 CONDUIT   1381.58     0  02:05      1.94    0.81    0.85
  YS02001647YS02001649 CONDUIT   1395.81     0  02:06      2.27    0.74    0.73
  YS02001649YS02001757 CONDUIT   1582.55     0  02:07      2.43    0.96    0.77
  YS02001652YS02001649 CONDUIT    256.98     0  02:07      0.75    0.13    0.68
  YS02001655YS02001652 CONDUIT    247.32     0  02:02      1.44    0.12    0.44
  YS02001658YS02001655 CONDUIT    247.55     0  02:02      1.85    0.11    0.27
  YS02001661YS02001658 CONDUIT    247.30     0  02:02      2.00    0.10    0.21
  YS02001664YS02001661 CONDUIT    246.87     0  02:02      1.76    0.08    0.23
  YS02001745YS02001748 CONDUIT    163.31     0  02:02      1.85    0.06    0.17
  YS02001748YS02001751 CONDUIT    163.60     0  02:02      1.53    0.08    0.19
  YS02001751YS02001754 CONDUIT    167.41     0  02:03      1.53    0.08    0.27
  YS02001754YS02001757 CONDUIT    162.69     0  02:04      0.49    0.07    0.60
  YS02001757CaochengTiaoxuchi CONDUIT   2134.23     0  02:07      6.34    0.92    0.45
  YS02001759YS02001757 CONDUIT    454.54     0  02:04      0.83    0.32    0.72
  YS02001762YS02001759 CONDUIT    292.75     0  02:09      0.57    0.34    0.66
  YS02001765YS02001762 CONDUIT    281.17     0  02:09      0.66    0.26    0.62
  YS02001767YS02001765 CONDUIT    272.99     0  02:05      0.78    0.34    0.58
  YS02001770YS02001767 CONDUIT    281.99     0  02:03      0.80    1.12    0.57
  YS02001774YS02001770 CONDUIT     31.54     0  02:01      0.15    0.02    0.60
  YS02001779YS02001774 CONDUIT     11.86     0  02:01      0.05    0.01    0.51
  YS02001783YS02001784 CONDUIT    796.92     0  02:07      1.67    1.10    0.90
  YS02001784YS02001785 CONDUIT    797.46     0  02:07      1.81    1.86    0.82
  YS02001786YS02001788 CONDUIT    797.57     0  02:07      2.25    1.54    0.66
  YS02001788YS02001790 CONDUIT    797.41     0  02:07      2.34    0.59    0.64
  YS02001790YS02001791 CONDUIT    832.65     0  02:08      2.90    0.91    0.56
  YS02001791YS02001793 CONDUIT    799.95     0  02:08      5.72    0.34    0.34
  YS02001793JiankangQianchi CONDUIT    891.96     0  02:08     20.02    0.07    0.50
  YS02001882YS02001884 CONDUIT     16.54     0  02:01      0.08    0.02    0.78
  YS02001884YS02001887 CONDUIT     44.47     0  02:01      0.08    0.06    0.87
  YS02001887YS02001890 CONDUIT    230.15     0  02:03      0.33    0.39    0.92
  YS02001890YS02001895 CONDUIT    219.41     0  02:03      0.34    0.10    0.84
  YS02001895YS02001898 CONDUIT    206.08     0  02:03      0.39    0.36    0.71
  YS02001898YS02001901 CONDUIT    196.95     0  02:12      0.35    0.13    0.80
  YS02001901YS02001904 CONDUIT    210.00     0  02:12      0.35    0.33    0.85
  YS02001904YS02001907 CONDUIT    223.15     0  02:12      0.31    0.08    0.92
  YS02001907YS02006553 CONDUIT    574.14     0  02:11      0.64    0.68    1.00
  YS02001910YS02001907 CONDUIT    370.11     0  02:09      0.49    0.21    0.98
  YS02001915YS02001910 CONDUIT    364.41     0  02:09      0.53    0.18    0.86
  YS02001918YS02001915 CONDUIT    150.53     0  02:10      0.44    0.08    0.58
  YS02001920YS02001918 CONDUIT    145.22     0  02:08      0.66    0.14    0.44
  YS02001923YS02001920 CONDUIT    137.50     0  02:06      0.78    0.06    0.34
  YS02001926YS02001923 CONDUIT    128.89     0  02:04      0.85    0.18    0.25
  YS02001929YS02001926 CONDUIT    129.26     0  02:04      0.93    0.06    0.23
  YS02006553YS02006556 CONDUIT    574.66     0  02:11      0.73    0.49    1.00
  YS02006556YS02006558 CONDUIT    576.95     0  02:11      0.73    0.46    1.00
  YS02006558YS02006561 CONDUIT    796.61     0  02:07      3.18    1.76    0.83
  YS02006561YS02001783 CONDUIT    797.10     0  02:07      2.13    0.41    0.70
  YS02163301YS02001633 CONDUIT    871.21     0  02:05      1.11    0.82    1.00
  YS02163601YS02164001 CONDUIT   1147.46     0  02:05      1.46    1.02    1.00
  YS02164001YS02001641 CONDUIT   1148.60     0  02:05      1.46    1.57    1.00
  YSB1154YSB6556       CONDUIT    138.56     0  02:02      0.36    0.25    1.00
  YSB1171HS02004479    CONDUIT    262.76     0  02:02      0.54    0.18    1.00
  YSB1174YSB1171       CONDUIT    122.66     0  02:02      0.32    0.19    1.00
  YSB6556YSB1171       CONDUIT    139.33     0  02:02      0.36    0.14    1.00
  CC-R1                PUMP       683.00     0  00:00              1.00
  CC-R2                PUMP       683.00     0  00:00              1.00
  CC-S1                PUMP       200.00     0  00:00              1.00
  CC-S2                PUMP       200.00     0  00:00              1.00
  JK-R1                PUMP      1000.00     0  00:00              1.00
  JK-R2                PUMP      1000.00     0  00:00              1.00
  JK-S                 PUMP       300.00     0  00:00              1.00
  XR-1                 PUMP        95.00     0  00:00              1.00
  XR-2                 PUMP        95.00     0  00:00              1.00
  XR-3                 PUMP        95.00     0  00:00              1.00
  XR-4                 PUMP        95.00     0  00:00              1.00
  
  
  ***************************
  Flow Classification Summary
  ***************************
  
  -------------------------------------------------------------------------------------
                      Adjusted    ---------- Fraction of Time in Flow Class ---------- 
                       /Actual         Up    Down  Sub   Sup   Up    Down  Norm  Inlet 
  Conduit               Length    Dry  Dry   Dry   Crit  Crit  Crit  Crit  Ltd   Ctrl  
  -------------------------------------------------------------------------------------
  1                       1.00   0.00  0.00  0.00  0.00  1.00  0.00  0.00  0.36  0.00
  HS02004478WS02006287    1.00   0.17  0.00  0.00  0.53  0.30  0.00  0.00  0.65  0.00
  HS02004479HS02004480    1.00   0.06  0.00  0.00  0.94  0.00  0.00  0.00  0.12  0.00
  HS02004480HS02004478    1.00   0.15  0.00  0.00  0.45  0.00  0.00  0.40  0.00  0.00
  HS02004770HS02004777    1.00   0.00  0.15  0.00  0.85  0.00  0.00  0.00  0.04  0.00
  HS02004777HS02004785    1.00   0.00  0.00  0.00  1.00  0.00  0.00  0.00  0.14  0.00
  HS02004785HS02004788    1.00   0.00  0.00  0.00  1.00  0.00  0.00  0.00  0.00  0.00
  HS02004788HS02004792    1.00   0.00  0.00  0.00  0.99  0.01  0.00  0.00  0.96  0.00
  HS02004792HS02004799    1.00   0.00  0.00  0.00  0.99  0.01  0.00  0.00  0.93  0.00
  HS02004799HS02004480    1.00   0.00  0.06  0.00  0.83  0.00  0.11  0.00  0.00  0.00
  HS02004802HS02004478    1.00   0.15  0.01  0.00  0.84  0.00  0.00  0.00  0.03  0.00
  HS02004807HS02004802    1.00   0.15  0.00  0.00  0.84  0.00  0.00  0.01  0.00  0.00
  HS02004817HS02004807    1.00   0.00  0.15  0.00  0.85  0.00  0.00  0.00  0.01  0.00
  HS02004817HS02004824    1.00   0.00  0.00  0.00  1.00  0.00  0.00  0.00  0.91  0.00
  HS02004824HS02004830    1.00   0.00  0.00  0.00  1.00  0.00  0.00  0.00  0.01  0.00
  HS02004830HS02004837    1.00   0.00  0.00  0.00  1.00  0.00  0.00  0.00  0.95  0.00
  HS02004837HS02004842    1.00   0.00  0.00  0.00  0.99  0.01  0.00  0.00  0.11  0.00
  HS02004842HS02004848    1.00   0.00  0.15  0.00  0.85  0.00  0.00  0.00  0.63  0.00
  HS02004848HS02004852    1.00   0.15  0.00  0.00  0.85  0.00  0.00  0.00  0.72  0.00
  HS02004852HS02004856    1.00   0.15  0.01  0.00  0.84  0.00  0.00  0.00  0.76  0.00
  HS02004856HS02004862    1.00   0.00  0.19  0.00  0.81  0.00  0.00  0.00  0.77  0.00
  HS02004862HS02004870    1.00   0.00  0.00  0.00  1.00  0.00  0.00  0.00  0.05  0.00
  HS02004870HS02004876    1.00   0.00  0.00  0.00  0.97  0.03  0.00  0.00  0.92  0.00
  HS02004876HS02004881    1.00   0.02  0.00  0.00  0.75  0.23  0.00  0.00  0.00  0.00
  HS02004881HS02006253    1.00   0.00  0.09  0.00  0.23  0.03  0.00  0.65  0.10  0.00
  HS02004901HS02004770    1.00   0.15  0.00  0.00  0.85  0.00  0.00  0.00  0.01  0.00
  WS02001211WS02001212    1.00   0.00  0.03  0.00  0.97  0.00  0.00  0.00  0.00  0.00
  WS02001212WS02001213    1.00   0.03  0.00  0.00  0.37  0.00  0.60  0.00  0.00  0.00
  WS02001213WS02003059    1.00   0.00  0.00  0.00  0.99  0.00  0.00  0.00  0.00  0.00
  WS02003059WS02003060    1.00   0.00  0.00  0.00  1.00  0.00  0.00  0.00  0.03  0.00
  WS02003060WS02003069    1.00   0.00  0.00  0.00  0.97  0.03  0.00  0.00  0.64  0.00
  WS02003066WSF200        1.00   0.09  0.00  0.00  0.00  0.91  0.00  0.00  0.80  0.00
  WS02003067WS02003066    1.00   0.08  0.01  0.00  0.91  0.00  0.00  0.00  0.00  0.00
  WS02003069WS02003072    1.00   0.00  0.00  0.00  1.00  0.00  0.00  0.00  0.74  0.00
  WS02003072WS02003073    1.00   0.00  0.00  0.00  0.00  0.00  0.00  1.00  0.00  0.00
  WS02004138WS02004139    1.00   0.00  0.01  0.00  0.96  0.02  0.00  0.02  0.98  0.00
  WS02004139WS02001211    1.00   0.00  0.00  0.00  0.99  0.00  0.00  0.00  0.00  0.00
  WS02004401WS02004402    1.00   0.03  0.00  0.00  0.97  0.00  0.00  0.00  0.00  0.00
  WS02004402WS02004403    1.00   0.03  0.00  0.00  0.97  0.00  0.00  0.00  0.00  0.00
  WS02004403WS02004404    1.00   0.00  0.04  0.00  0.96  0.00  0.00  0.00  0.00  0.00
  WS02004404WS02004405    1.00   0.00  0.00  0.00  1.00  0.00  0.00  0.00  0.00  0.00
  WS02004405WS02004406    1.00   0.00  0.00  0.00  1.00  0.00  0.00  0.00  0.00  0.00
  WS02004406WS02004407    1.00   0.00  0.06  0.00  0.94  0.00  0.00  0.00  0.00  0.00
  WS02004407WS02004409    1.00   0.06  0.00  0.00  0.92  0.02  0.00  0.00  0.91  0.00
  WS02004409WS02004410    1.00   0.06  0.00  0.00  0.94  0.00  0.00  0.00  0.00  0.00
  WS02004410WS02004411    1.00   0.06  0.00  0.00  0.94  0.00  0.00  0.00  0.00  0.00
  WS02004411WS02004412    1.00   0.06  0.00  0.00  0.93  0.00  0.00  0.00  0.00  0.00
  WS02004412WS02004413    1.00   0.07  0.00  0.00  0.93  0.00  0.00  0.00  0.00  0.00
  WS02004413WS02003067    1.00   0.07  0.01  0.00  0.00  0.00  0.92  0.00  0.00  0.00
  WS02006109WS02006110    1.00   0.00  0.01  0.00  0.98  0.00  0.01  0.00  0.00  0.00
  WS02006110WS02006113    1.00   0.01  0.01  0.00  0.98  0.00  0.00  0.00  0.00  0.00
  WS02006111WS02006112    1.00   0.02  0.00  0.00  0.97  0.00  0.00  0.00  0.87  0.00
  WS02006112WS02006115    1.00   0.02  0.01  0.00  0.97  0.00  0.01  0.00  0.00  0.00
  WS02006113WS02006111    1.00   0.02  0.00  0.00  0.18  0.80  0.00  0.00  0.09  0.00
  WS02006115WS02006116    1.00   0.03  0.00  0.00  0.96  0.00  0.00  0.01  0.00  0.00
  WS02006116WS02004401    1.00   0.03  0.00  0.00  0.97  0.00  0.00  0.00  0.00  0.00
  WS02006228WS02006109    1.00   0.00  0.00  0.00  1.00  0.00  0.00  0.00  0.00  0.00
  WS02006229WS02006228    1.00   0.00  0.00  0.00  0.99  0.00  0.00  0.01  0.00  0.00
  WS02006230WS02006229    1.00   0.00  0.00  0.00  0.98  0.00  0.00  0.02  0.04  0.00
  WS02006231WS02006230    1.00   0.00  0.00  0.00  0.45  0.00  0.55  0.00  0.00  0.00
  WS02006232WS02006231    1.00   0.00  0.00  0.00  0.99  0.00  0.00  0.00  0.00  0.00
  WS02006234WS02006232    1.00   0.00  0.00  0.00  1.00  0.00  0.00  0.00  0.10  0.00
  WS02006235WS02006234    1.00   0.00  0.00  0.00  0.73  0.00  0.27  0.00  0.00  0.00
  WS02006238WS02006235    1.00   0.00  0.00  0.00  1.00  0.00  0.00  0.00  0.01  0.00
  WS02006239WS02006238    1.00   0.00  0.00  0.00  1.00  0.00  0.00  0.00  0.30  0.00
  WS02006240WS02006239    1.00   0.00  0.00  0.00  0.64  0.00  0.00  0.36  0.03  0.00
  WS02006242WS02006240    1.00   0.00  0.00  0.00  0.99  0.00  0.00  0.00  0.00  0.00
  WS02006243WS02006242    1.00   0.00  0.00  0.00  0.99  0.00  0.00  0.00  0.75  0.00
  WS02006245WS02006243    1.00   0.00  0.00  0.00  0.87  0.00  0.00  0.13  0.00  0.00
  WS02006247WS02006245    1.00   0.00  0.00  0.00  0.99  0.00  0.00  0.01  0.00  0.00
  WS02006248WS02006247    1.00   0.00  0.00  0.00  0.99  0.00  0.00  0.00  0.73  0.00
  WS02006249WS02006248    1.00   0.00  0.00  0.00  0.47  0.00  0.53  0.00  0.00  0.00
  WS02006251WS02006249    1.00   0.00  0.00  0.00  1.00  0.00  0.00  0.00  0.74  0.00
  WS02006252WS02006251    1.00   0.00  0.43  0.00  0.16  0.01  0.40  0.00  0.00  0.00
  WS02006253WS02006251    1.00   0.00  0.00  0.00  0.99  0.00  0.01  0.00  0.00  0.00
  WS02006256WS02006235    1.00   0.00  0.00  0.00  0.99  0.01  0.00  0.00  0.01  0.00
  WS02006280WS02006229    1.00   0.16  0.00  0.00  0.13  0.04  0.00  0.67  0.00  0.00
  WS02006284WS02006280    1.00   0.16  0.00  0.00  0.09  0.01  0.00  0.75  0.00  0.00
  WS02006287WS02006284    1.00   0.14  0.04  0.00  0.43  0.40  0.00  0.00  0.71  0.00
  WSF200WS02003060        1.00   0.00  0.09  0.00  0.57  0.34  0.00  0.00  0.74  0.00
  YS02001580YS02001583    1.00   0.28  0.47  0.00  0.25  0.00  0.00  0.00  0.72  0.00
  YS02001583YS02001586    1.00   0.40  0.28  0.00  0.32  0.00  0.00  0.00  0.72  0.00
  YS02001586YS02001590    1.00   0.15  0.00  0.00  0.50  0.03  0.00  0.32  0.33  0.00
  YS02001590YS02001593    1.00   0.15  0.01  0.00  0.09  0.00  0.75  0.00  0.00  0.00
  YS02001593YS02001596    1.00   0.16  0.00  0.00  0.11  0.01  0.00  0.72  0.01  0.00
  YS02001596YS02001600    1.00   0.16  0.00  0.00  0.21  0.04  0.00  0.60  0.05  0.00
  YS02001600YS02001601    1.00   0.15  0.01  0.00  0.84  0.00  0.00  0.00  0.68  0.00
  YS02001601YS02001602    1.00   0.15  0.01  0.00  0.84  0.00  0.00  0.00  0.00  0.00
  YS02001602YS02001605    1.00   0.16  0.00  0.00  0.84  0.00  0.00  0.00  0.00  0.00
  YS02001605YS02001607    1.00   0.16  0.00  0.00  0.84  0.00  0.00  0.00  0.00  0.00
  YS02001607YS02001610    1.00   0.15  0.01  0.00  0.84  0.00  0.00  0.00  0.03  0.00
  YS02001610YS02001613    1.00   0.15  0.00  0.00  0.85  0.00  0.00  0.00  0.02  0.00
  YS02001613YS02001616    1.00   0.15  0.00  0.00  0.85  0.00  0.00  0.00  0.01  0.00
  YS02001616YS02001619    1.00   0.15  0.00  0.00  0.85  0.00  0.00  0.00  0.00  0.00
  YS02001619YS02001622    1.00   0.15  0.00  0.00  0.85  0.00  0.00  0.00  0.38  0.00
  YS02001622YS02001625    1.00   0.15  0.00  0.00  0.85  0.00  0.00  0.00  0.07  0.00
  YS02001625YS02001629    1.00   0.15  0.04  0.00  0.14  0.00  0.66  0.00  0.00  0.00
  YS02001629YS02163301    1.00   0.17  0.01  0.00  0.82  0.00  0.00  0.00  0.00  0.00
  YS02001633YS02163601    1.00   0.00  0.01  0.00  0.99  0.00  0.00  0.00  0.16  0.00
  YS02001641YS02001644    1.00   0.00  0.01  0.00  0.99  0.00  0.00  0.00  0.00  0.00
  YS02001644YS02001647    1.00   0.00  0.19  0.00  0.81  0.00  0.00  0.00  0.00  0.00
  YS02001647YS02001649    1.00   0.00  0.19  0.00  0.43  0.37  0.00  0.00  0.61  0.00
  YS02001649YS02001757    1.00   0.00  0.00  0.00  0.67  0.32  0.00  0.00  0.56  0.00
  YS02001652YS02001649    1.00   0.00  0.00  0.00  0.97  0.03  0.00  0.00  0.84  0.00
  YS02001655YS02001652    1.00   0.00  0.00  0.00  0.17  0.03  0.00  0.80  0.07  0.00
  YS02001658YS02001655    1.00   0.00  0.16  0.00  0.39  0.45  0.00  0.00  0.77  0.00
  YS02001661YS02001658    1.00   0.16  0.00  0.00  0.29  0.54  0.00  0.00  0.76  0.00
  YS02001664YS02001661    1.00   0.15  0.00  0.00  0.70  0.15  0.00  0.00  0.87  0.00
  YS02001745YS02001748    1.00   0.00  0.00  0.00  0.00  0.00  0.00  1.00  0.00  0.00
  YS02001748YS02001751    1.00   0.00  0.00  0.00  0.60  0.40  0.00  0.00  0.88  0.00
  YS02001751YS02001754    1.00   0.00  0.00  0.00  0.10  0.02  0.00  0.88  0.05  0.00
  YS02001754YS02001757    1.00   0.00  0.00  0.00  1.00  0.00  0.00  0.00  0.93  0.00
  YS02001757CaochengTiaoxuchi    1.00   0.00  0.00  0.00  0.32  0.68  0.00  0.00  0.47  0.00
  YS02001759YS02001757    1.00   0.00  0.00  0.00  1.00  0.00  0.00  0.00  0.76  0.00
  YS02001762YS02001759    1.00   0.00  0.00  0.00  1.00  0.00  0.00  0.00  0.06  0.00
  YS02001765YS02001762    1.00   0.00  0.00  0.00  1.00  0.00  0.00  0.00  0.80  0.00
  YS02001767YS02001765    1.00   0.00  0.00  0.00  1.00  0.00  0.00  0.00  0.00  0.00
  YS02001770YS02001767    1.00   0.00  0.00  0.00  1.00  0.00  0.00  0.00  0.00  0.00
  YS02001774YS02001770    1.00   0.00  0.15  0.00  0.67  0.00  0.17  0.00  0.05  0.00
  YS02001779YS02001774    1.00   0.00  0.00  0.00  1.00  0.00  0.00  0.00  0.88  0.00
  YS02001783YS02001784    1.00   0.00  0.20  0.00  0.80  0.00  0.00  0.00  0.59  0.00
  YS02001784YS02001785    1.00   0.00  0.00  0.00  1.00  0.00  0.00  0.00  0.20  0.00
  YS02001786YS02001788    1.00   0.00  0.00  0.00  0.62  0.38  0.00  0.00  0.00  0.00
  YS02001788YS02001790    1.00   0.00  0.00  0.00  0.21  0.79  0.00  0.00  0.90  0.00
  YS02001790YS02001791    1.00   0.00  0.00  0.00  0.01  0.99  0.00  0.00  0.14  0.00
  YS02001791YS02001793    1.00   0.00  0.00  0.00  0.00  1.00  0.00  0.00  0.00  0.00
  YS02001793JiankangQianchi    1.00   0.00  0.00  0.00  0.17  0.83  0.00  0.00  0.69  0.00
  YS02001882YS02001884    1.00   0.17  0.01  0.00  0.82  0.00  0.00  0.00  0.00  0.00
  YS02001884YS02001887    1.00   0.10  0.04  0.00  0.86  0.00  0.00  0.00  0.00  0.00
  YS02001887YS02001890    1.00   0.00  0.00  0.00  0.95  0.00  0.05  0.00  0.00  0.00
  YS02001890YS02001895    1.00   0.00  0.18  0.00  0.81  0.00  0.00  0.00  0.00  0.00
  YS02001895YS02001898    1.00   0.19  0.00  0.00  0.79  0.00  0.02  0.00  0.00  0.00
  YS02001898YS02001901    1.00   0.18  0.01  0.00  0.81  0.00  0.00  0.00  0.01  0.00
  YS02001901YS02001904    1.00   0.18  0.00  0.00  0.82  0.00  0.00  0.00  0.00  0.00
  YS02001904YS02001907    1.00   0.00  0.18  0.00  0.82  0.00  0.00  0.00  0.00  0.00
  YS02001907YS02006553    1.00   0.00  0.03  0.00  0.97  0.00  0.00  0.00  0.00  0.00
  YS02001910YS02001907    1.00   0.00  0.00  0.00  0.96  0.01  0.00  0.03  0.12  0.00
  YS02001915YS02001910    1.00   0.00  0.00  0.00  0.97  0.03  0.00  0.00  0.19  0.00
  YS02001918YS02001915    1.00   0.00  0.00  0.00  0.97  0.03  0.00  0.00  0.81  0.00
  YS02001920YS02001918    1.00   0.00  0.00  0.00  1.00  0.00  0.00  0.00  0.00  0.00
  YS02001923YS02001920    1.00   0.00  0.00  0.00  1.00  0.00  0.00  0.00  0.99  0.00
  YS02001926YS02001923    1.00   0.00  0.11  0.00  0.00  0.00  0.89  0.00  0.00  0.00
  YS02001929YS02001926    1.00   0.00  0.15  0.00  0.85  0.00  0.00  0.00  0.87  0.00
  YS02006553YS02006556    1.00   0.01  0.00  0.00  0.99  0.00  0.00  0.00  0.03  0.00
  YS02006556YS02006558    1.00   0.00  0.00  0.00  1.00  0.00  0.00  0.00  0.00  0.00
  YS02006558YS02006561    1.00   0.20  0.00  0.00  0.00  0.80  0.00  0.00  0.18  0.00
  YS02006561YS02001783    1.00   0.20  0.00  0.00  0.05  0.75  0.00  0.00  0.73  0.00
  YS02163301YS02001633    1.00   0.00  0.17  0.00  0.83  0.00  0.00  0.00  0.00  0.00
  YS02163601YS02164001    1.00   0.00  0.12  0.00  0.88  0.00  0.00  0.00  0.00  0.00
  YS02164001YS02001641    1.00   0.01  0.11  0.00  0.88  0.00  0.00  0.00  0.06  0.00
  YSB1154YSB6556          1.00   0.15  0.00  0.00  0.85  0.00  0.00  0.00  0.02  0.00
  YSB1171HS02004479       1.00   0.07  0.00  0.00  0.91  0.00  0.00  0.02  0.11  0.00
  YSB1174YSB1171          1.00   0.09  0.04  0.00  0.87  0.00  0.00  0.00  0.00  0.00
  YSB6556YSB1171          1.00   0.07  0.08  0.00  0.85  0.00  0.00  0.00  0.00  0.00
  
  
  *************************
  Conduit Surcharge Summary
  *************************
  
  ----------------------------------------------------------------------------
                                                           Hours        Hours 
                         --------- Hours Full --------   Above Full   Capacity
  Conduit                Both Ends  Upstream  Dnstream   Normal Flow   Limited
  ----------------------------------------------------------------------------
  HS02004478WS02006287        0.01      0.01      0.18      0.01         0.01
  HS02004479HS02004480        0.19      0.19      0.20      0.01         0.01
  HS02004480HS02004478        0.12      0.18      0.12      1.04         0.12
  HS02004770HS02004777        0.08      0.08      0.09      0.08         0.02
  HS02004777HS02004785        0.01      0.01      0.09      0.01         0.01
  HS02004785HS02004788        0.01      0.01      0.01      0.72         0.01
  HS02004788HS02004792        0.01      0.01      0.15      0.01         0.01
  HS02004792HS02004799        0.15      0.15      0.24      0.01         0.01
  HS02004799HS02004480        0.18      0.18      0.24      0.30         0.01
  HS02004802HS02004478        0.13      0.13      0.19      0.01         0.01
  HS02004807HS02004802        0.17      0.17      0.18      0.01         0.01
  HS02004817HS02004807        0.17      0.17      0.55      0.01         0.01
  HS02004817HS02004824        0.01      0.01      0.55      0.01         0.01
  HS02004837HS02004842        0.01      0.01      0.09      0.01         0.01
  HS02004842HS02004848        0.01      0.01      0.09      0.01         0.01
  HS02004876HS02004881        0.01      0.01      0.01      0.70         0.01
  HS02004881HS02006253        0.01      0.01      0.54      0.01         0.01
  HS02004901HS02004770        0.08      0.08      0.09      0.01         0.01
  WS02003072WS02003073        0.01      0.01      0.01      1.54         0.01
  WS02004401WS02004402        0.72      0.72      0.74      0.65         0.58
  WS02004402WS02004403        0.74      0.74      0.75      0.73         0.70
  WS02004403WS02004404        0.75      0.75      0.94      0.01         0.01
  WS02004404WS02004405        0.92      0.94      0.92      2.56         0.92
  WS02004405WS02004406        0.88      0.92      0.88      1.03         0.88
  WS02004406WS02004407        0.01      0.01      0.88      0.01         0.01
  WS02004407WS02004409        0.01      0.01      0.35      0.01         0.01
  WS02004409WS02004410        0.33      0.35      0.33      0.68         0.33
  WS02004410WS02004411        0.31      0.33      0.31      0.70         0.31
  WS02004411WS02004412        0.25      0.31      0.25      0.72         0.25
  WS02004412WS02004413        0.25      0.25      0.54      0.01         0.01
  WS02004413WS02003067        0.01      0.01      0.54      0.01         0.01
  WS02006109WS02006110        1.00      1.00      1.45      1.00         0.01
  WS02006110WS02006113        0.51      0.51      1.38      0.01         0.01
  WS02006111WS02006112        0.50      0.50      1.56      0.01         0.01
  WS02006112WS02006115        0.67      0.67      1.05      0.01         0.01
  WS02006113WS02006111        0.50      0.51      0.50      0.63         0.50
  WS02006115WS02006116        0.68      0.68      0.68      0.68         0.66
  WS02006116WS02004401        0.72      0.72      0.72      0.71         0.69
  WS02006228WS02006109        1.31      1.44      1.31      1.81         1.31
  WS02006229WS02006228        1.28      1.35      1.28      1.64         1.28
  WS02006230WS02006229        1.53      1.56      1.53      2.39         0.91
  WS02006231WS02006230        0.84      0.84      0.88      1.96         0.52
  WS02006232WS02006231        0.84      0.84      1.15      0.01         0.04
  WS02006234WS02006232        0.86      0.86      1.15      0.01         0.02
  WS02006235WS02006234        0.79      0.80      0.92      1.68         0.48
  WS02006238WS02006235        0.96      0.96      1.10      0.01         0.06
  WS02006239WS02006238        0.96      1.01      1.00      0.57         0.23
  WS02006240WS02006239        0.85      0.88      0.87      0.57         0.17
  WS02006242WS02006240        0.85      0.85      1.07      0.77         0.34
  WS02006243WS02006242        0.87      0.87      1.00      0.01         0.01
  WS02006245WS02006243        0.83      0.84      0.84      0.34         0.17
  WS02006247WS02006245        0.83      0.88      0.83      1.26         0.34
  WS02006248WS02006247        0.82      0.82      0.86      0.01         0.01
  WS02006249WS02006248        0.79      0.79      0.83      0.66         0.04
  WS02006251WS02006249        0.82      0.85      0.83      0.96         0.70
  WS02006252WS02006251        1.08      1.08      1.09      1.04         0.01
  WS02006253WS02006251        0.83      0.84      0.89      0.28         0.06
  WS02006256WS02006235        1.83      1.94      5.34      0.14         0.06
  WS02006280WS02006229        0.27      0.27      0.33      0.01         0.01
  WS02006284WS02006280        0.20      0.20      0.26      0.01         0.01
  WS02006287WS02006284        0.10      0.10      0.21      0.01         0.01
  YS02001580YS02001583        0.01      0.01      0.01      0.01         0.01
  YS02001583YS02001586        0.01      0.01      0.13      0.01         0.01
  YS02001586YS02001590        0.14      0.14      0.21      0.01         0.01
  YS02001590YS02001593        0.21      0.21      0.23      0.20         0.01
  YS02001593YS02001596        0.22      0.22      0.30      0.01         0.01
  YS02001596YS02001600        0.33      0.33      0.39      0.01         0.01
  YS02001600YS02001601        0.44      0.44      0.66      0.01         0.01
  YS02001601YS02001602        0.56      0.56      0.70      0.40         0.01
  YS02001602YS02001605        0.52      0.52      0.56      1.53         0.01
  YS02001605YS02001607        0.49      0.52      0.49      0.62         0.49
  YS02001607YS02001610        0.15      0.15      0.17      0.01         0.01
  YS02001610YS02001613        0.14      0.14      0.17      0.01         0.01
  YS02001613YS02001616        0.09      0.09      0.14      0.01         0.01
  YS02001616YS02001619        0.07      0.07      0.09      0.01         0.01
  YS02001619YS02001622        0.06      0.07      0.06      0.23         0.06
  YS02001622YS02001625        0.06      0.06      0.25      0.01         0.01
  YS02001625YS02001629        0.01      0.01      0.25      0.01         0.01
  YS02001629YS02163301        0.24      0.24      0.24      0.11         0.09
  YS02001633YS02163601        0.26      0.26      0.28      0.16         0.15
  YS02001641YS02001644        0.11      0.17      0.11      0.75         0.11
  YS02001644YS02001647        0.01      0.01      0.11      0.01         0.01
  YS02001770YS02001767        0.01      0.01      0.01      0.11         0.01
  YS02001783YS02001784        0.01      0.01      0.01      0.17         0.01
  YS02001784YS02001785        0.01      0.01      0.01      0.34         0.01
  YS02001786YS02001788        0.01      0.01      0.01      0.25         0.01
  YS02001904YS02001907        0.01      0.01      0.24      0.01         0.01
  YS02001907YS02006553        0.35      0.35      0.39      0.01         0.01
  YS02001910YS02001907        0.01      0.01      0.22      0.01         0.01
  YS02006553YS02006556        0.14      0.14      0.24      0.01         0.01
  YS02006556YS02006558        0.19      0.19      0.25      0.01         0.01
  YS02006558YS02006561        0.01      0.13      0.01      0.31         0.01
  YS02163301YS02001633        0.24      0.24      0.28      0.01         0.01
  YS02163601YS02164001        0.18      0.18      0.28      0.01         0.01
  YS02164001YS02001641        0.17      0.18      0.17      0.32         0.17
  YSB1154YSB6556              0.23      0.23      0.32      0.01         0.01
  YSB1171HS02004479           0.14      0.14      0.32      0.01         0.01
  YSB1174YSB1171              0.27      0.27      0.49      0.01         0.01
  YSB6556YSB1171              0.23      0.23      0.61      0.01         0.01
  
  
  ***************
  Pumping Summary
  ***************
  
  ---------------------------------------------------------------------------------------------------------
                                                  Min       Avg       Max     Total     Power    % Time Off
                        Percent   Number of      Flow      Flow      Flow    Volume     Usage    Pump Curve
  Pump                 Utilized   Start-Ups       LPS       LPS       LPS  10^6 ltr     Kw-hr    Low   High
  ---------------------------------------------------------------------------------------------------------
  CC-R1                   12.98           7      0.00    683.00    683.00     2.554     39.61    0.0  100.0
  CC-R2                   12.98           7      0.00    683.00    683.00     2.554     39.61    0.0  100.0
  CC-S1                   12.98           7      0.00    200.00    200.00     0.748      6.75    0.0   78.4
  CC-S2                   12.98           7      0.00    200.00    200.00     0.748      6.75    0.0   78.4
  JK-R1                    3.64         211      0.00    978.46   1000.00     1.012      2.61    0.0    0.0
  JK-R2                    3.64         211      0.00    978.46   1000.00     1.012      2.61    0.0    0.0
  JK-S                     3.64         211      0.00    299.49    300.00     0.313      7.11    0.0    0.0
  XR-1                    97.91           2      0.00     95.00     95.00     2.679      9.63    0.0    0.0
  XR-2                    93.94           2      0.00     95.00     95.00     2.570      8.78    0.0    0.0
  XR-3                     0.00           1      0.00     95.00     95.00     0.000      0.00    0.0    0.0
  XR-4                     0.00           1      0.00     95.00     95.00     0.000      0.00    0.0    0.0
  

  Analysis begun on:  Tue Jun 20 17:13:41 2023
  Analysis ended on:  Tue Jun 20 17:13:46 2023
  Total elapsed time: 00:00:05