
  OWA STORM WATER MANAGEMENT MODEL - VERSION v5.1.14 (OWA 2022-07-31)
  --------------------------------------------------------------

  WARNING 04: minimum elevation drop used for Conduit WS02004404WS02004405
  WARNING 03: negative offset ignored for Link YS02001904YS02001907
  
  *********************************************************
  NOTE: The summary statistics displayed in this report are
  based on results found at every computational time step,  
  not just on results from each reporting time step.
  *********************************************************
  
  ****************
  Analysis Options
  ****************
  Flow Units ............... LPS
  Process Models:
    Rainfall/Runoff ........ YES
    RDII ................... NO
    Snowmelt ............... NO
    Groundwater ............ NO
    Flow Routing ........... YES
    Ponding Allowed ........ NO
    Water Quality .......... NO
  Infiltration Method ...... HORTON
  Flow Routing Method ...... DYNWAVE
  Surcharge Method ......... EXTRAN
  Starting Date ............ 08/28/2015 08:00:00
  Ending Date .............. 08/28/2015 16:00:00
  Antecedent Dry Days ...... 8.0
  Report Time Step ......... 00:01:00
  Wet Time Step ............ 00:01:00
  Dry Time Step ............ 00:01:00
  Routing Time Step ........ 30.00 sec
  Variable Time Step ....... YES
  Maximum Trials ........... 8
  Number of Threads ........ 4
  Head Tolerance ........... 0.001500 m
  
  
  **************************        Volume         Depth
  Runoff Quantity Continuity     hectare-m            mm
  **************************     ---------       -------
  Initial LID Storage ......         0.072         1.184
  Total Precipitation ......         5.410        89.304
  Evaporation Loss .........         0.000         0.000
  Infiltration Loss ........         0.213         3.515
  Surface Runoff ...........         4.265        70.406
  Final Storage ............         1.005        16.592
  Continuity Error (%) .....        -0.028
  
  
  **************************        Volume        Volume
  Flow Routing Continuity        hectare-m      10^6 ltr
  **************************     ---------     ---------
  Dry Weather Inflow .......         0.630         6.296
  Wet Weather Inflow .......         4.265        42.654
  Groundwater Inflow .......         0.000         0.000
  RDII Inflow ..............         0.000         0.000
  External Inflow ..........         0.105         1.045
  External Outflow .........         2.512        25.121
  Flooding Loss ............         2.445        24.445
  Evaporation Loss .........         0.000         0.000
  Exfiltration Loss ........         0.000         0.000
  Initial Stored Volume ....         0.303         3.031
  Final Stored Volume ......         0.357         3.566
  Continuity Error (%) .....        -0.201
  
  
  *************************
  Highest Continuity Errors
  *************************
  Node YS02001583 (-13.21%)
  Node YS02001884 (5.04%)
  Node HS02004842 (1.34%)
  
  
  ***************************
  Time-Step Critical Elements
  ***************************
  Link WS02006280WS02006229 (52.21%)
  Link WS02006252WS02006251 (10.31%)
  Link WS02003066WSF200 (7.83%)
  Link WS02006238WS02006235 (6.86%)
  Link YS02001791YS02001793 (4.00%)
  
  
  ********************************
  Highest Flow Instability Indexes
  ********************************
  Link WS02006238WS02006235 (32)
  Link WS02006113WS02006111 (28)
  Link WS02006229WS02006228 (26)
  Link WS02004404WS02004405 (25)
  Link WS02006239WS02006238 (23)
  
  
  *************************
  Routing Time Step Summary
  *************************
  Minimum Time Step           :     0.00 sec
  Average Time Step           :     2.74 sec
  Maximum Time Step           :    16.89 sec
  Percent in Steady State     :     0.00
  Average Iterations per Step :     3.70
  Percent Not Converging      :    14.60
  
  
  ***************************
  Subcatchment Runoff Summary
  ***************************
  
  ------------------------------------------------------------------------------------------------------------------------------
                            Total      Total      Total      Total     Imperv       Perv      Total       Total     Peak  Runoff
                           Precip      Runon       Evap      Infil     Runoff     Runoff     Runoff      Runoff   Runoff   Coeff
  Subcatchment                 mm         mm         mm         mm         mm         mm         mm    10^6 ltr      LPS
  ------------------------------------------------------------------------------------------------------------------------------
  sub0                      99.00       0.00       0.00       1.04      90.83       5.89      96.73        0.08    55.64   0.977
  sub1                      99.00       0.00       0.00       1.59      77.86       8.17      86.04        0.57   367.96   0.869
  sub10                     99.00       0.00       0.00       1.01      72.96       5.43      78.39        0.86   570.08   0.792
  sub11                     99.00       0.00       0.00       0.92      67.81       5.06      72.87        0.85   579.71   0.736
  sub12                     99.00       0.00       0.00       1.61      68.93       8.83      77.76        0.68   481.85   0.785
  sub14                     99.00       0.00       0.00       1.00      64.22       5.44      69.66        0.66   450.17   0.704
  sub15                     99.00       0.00       0.00       4.62      57.74      20.47      78.21        1.35   852.66   0.790
  sub16                     99.00       0.00       0.00       4.89      56.31      23.23      79.54        0.83   561.67   0.803
  sub17                     99.00       0.00       0.00       5.24      62.15      24.42      86.57        0.74   492.51   0.874
  sub2                      99.00       0.00       0.00       7.36      56.93      26.56      83.48        0.78   426.20   0.843
  sub22                     99.00       0.00       0.00       8.23      53.89      33.00      86.89        5.49  3291.57   0.878
  sub23                     99.00       0.00       0.00       6.16      55.50      26.88      82.38        3.93  2498.80   0.832
  sub3                      99.00       0.00       0.00       7.93      56.39      25.69      82.08        1.85   933.02   0.829
  sub4                      99.00       0.00       0.00       1.75      76.75       7.89      84.64        1.77   954.94   0.855
  sub5                      99.00       0.00       0.00       0.90      75.32       4.85      80.18        0.91   590.35   0.810
  sub60                     81.29       0.00       0.00       1.40      54.29       6.13      60.42        0.79   541.27   0.743
  sub61                     81.29       0.00       0.00       2.15      54.24       9.15      63.39        1.16   784.59   0.780
  sub62                     81.29       0.00       0.00       0.95      57.83       4.16      61.99        1.70  1075.76   0.763
  sub63                     81.29       0.00       0.00       3.91      46.46      15.39      61.85        1.40   871.53   0.761
  sub64                     81.29       0.00       0.00       1.88      52.91       7.62      60.52        1.45   866.68   0.745
  sub65                     81.29       0.00       0.00       1.73      57.11       6.96      64.06        1.76  1011.09   0.788
  sub66                     81.29       0.00       0.00       4.52      44.94      14.17      59.11        2.76  1287.93   0.727
  sub67                     81.29       0.00       0.00       0.95      59.28       4.30      63.58        1.18   846.42   0.782
  sub68                     81.29       0.00       0.00       1.65      52.36       7.02      59.38        1.63  1068.57   0.730
  sub69                     81.29       0.00       0.00       1.50      54.68       8.16      62.84        2.33  1313.17   0.773
  sub7                      99.00       0.00       0.00       1.06      68.83       5.84      74.67        0.25   174.04   0.754
  sub70                     81.29       0.00       0.00       4.98      43.82      17.64      61.46        1.78   742.66   0.756
  sub71                     81.29       0.00       0.00       0.88      52.54       3.77      56.31        1.47   880.60   0.693
  sub72                     81.29       0.00       0.00       0.84      56.76       3.51      60.27        0.83   450.23   0.741
  sub8                      99.00       0.00       0.00       1.04      66.89       5.67      72.56        0.46   315.79   0.733
  sub9                      99.00       0.00       0.00       1.01      64.84       5.49      70.34        0.34   230.21   0.710
  

  ***********************
  LID Performance Summary
  ***********************

  --------------------------------------------------------------------------------------------------------------------
                                         Total      Evap     Infil   Surface    Drain    Initial     Final  Continuity
                                        Inflow      Loss      Loss   Outflow   Outflow   Storage   Storage       Error
  Subcatchment      LID Control             mm        mm        mm        mm        mm        mm        mm           %
  --------------------------------------------------------------------------------------------------------------------
  sub1              GreenRoof            99.00      0.00      0.00      0.00      0.00      7.05    106.07       -0.01
  sub10             GreenRoof            99.00      0.00      0.00      0.00      0.00      7.05    106.07       -0.01
  sub11             GreenRoof            99.00      0.00      0.00      0.00      0.00      7.05    106.07       -0.01
  sub12             GreenRoof            99.00      0.00      0.00      0.00      0.00      7.05    106.07       -0.01
  sub14             GreenRoof            99.00      0.00      0.00      0.00      0.00      7.05    106.07       -0.01
  sub15             GreenRoof            99.00      0.00      0.00      0.00      0.00      7.05    106.07       -0.01
  sub16             GreenRoof            99.00      0.00      0.00      0.00      0.00      7.05    106.07       -0.01
  sub17             GreenRoof            99.00      0.00      0.00      0.00      0.00      7.05    106.07       -0.01
  sub2              GreenRoof            99.00      0.00      0.00      0.00      0.00      7.05    106.07       -0.01
  sub22             GreenRoof            99.00      0.00      0.00      0.00      0.00      7.05    106.07       -0.01
  sub23             GreenRoof            99.00      0.00      0.00      0.00      0.00      7.05    106.07       -0.01
  sub3              GreenRoof            99.00      0.00      0.00      0.00      0.00      7.05    106.07       -0.01
  sub4              GreenRoof            99.00      0.00      0.00      0.00      0.00      7.05    106.07       -0.01
  sub5              GreenRoof            99.00      0.00      0.00      0.00      0.00      7.05    106.07       -0.01
  sub60             GreenRoof            81.29      0.00      0.00      0.00      0.00      7.05     88.39       -0.05
  sub61             GreenRoof            81.29      0.00      0.00      0.00      0.00      7.05     88.39       -0.05
  sub62             GreenRoof            81.29      0.00      0.00      0.00      0.00      7.05     88.39       -0.05
  sub63             GreenRoof            81.29      0.00      0.00      0.00      0.00      7.05     88.39       -0.05
  sub64             GreenRoof            81.29      0.00      0.00      0.00      0.00      7.05     88.39       -0.05
  sub65             GreenRoof            81.29      0.00      0.00      0.00      0.00      7.05     88.39       -0.05
  sub66             GreenRoof            81.29      0.00      0.00      0.00      0.00      7.05     88.39       -0.05
  sub67             GreenRoof            81.29      0.00      0.00      0.00      0.00      7.05     88.39       -0.05
  sub68             GreenRoof            81.29      0.00      0.00      0.00      0.00      7.05     88.39       -0.05
  sub69             GreenRoof            81.29      0.00      0.00      0.00      0.00      7.05     88.39       -0.05
  sub7              GreenRoof            99.00      0.00      0.00      0.00      0.00      7.05    106.07       -0.01
  sub70             GreenRoof            81.29      0.00      0.00      0.00      0.00      7.05     88.39       -0.05
  sub71             GreenRoof            81.29      0.00      0.00      0.00      0.00      7.05     88.39       -0.05
  sub72             GreenRoof            81.29      0.00      0.00      0.00      0.00      7.05     88.39       -0.05
  sub8              GreenRoof            99.00      0.00      0.00      0.00      0.00      7.05    106.07       -0.01
  sub9              GreenRoof            99.00      0.00      0.00      0.00      0.00      7.05    106.07       -0.01
  
  ******************
  Node Depth Summary
  ******************
  
  ---------------------------------------------------------------------------------
                                 Average  Maximum  Maximum  Time of Max    Reported
                                   Depth    Depth      HGL   Occurrence   Max Depth
  Node                 Type       Meters   Meters   Meters  days hr:min      Meters
  ---------------------------------------------------------------------------------
  HS02004478           JUNCTION     0.32     1.60    10.83     0  02:17        1.60
  HS02004479           JUNCTION     0.41     1.71    10.92     0  02:09        1.67
  HS02004480           JUNCTION     0.37     1.68    10.92     0  02:09        1.63
  HS02004770           JUNCTION     0.36     1.42    11.25     0  02:05        1.42
  HS02004777           JUNCTION     0.39     1.48    11.28     0  02:05        1.48
  HS02004785           JUNCTION     0.27     1.49    11.39     0  02:05        1.39
  HS02004788           JUNCTION     0.23     1.42    11.32     0  02:05        1.42
  HS02004792           JUNCTION     0.31     1.60    11.12     0  02:09        1.60
  HS02004799           JUNCTION     0.44     1.76    10.97     0  02:09        1.76
  HS02004802           JUNCTION     0.43     1.80    10.93     0  02:30        1.79
  HS02004807           JUNCTION     0.40     1.92    11.09     0  02:17        1.92
  HS02004817           JUNCTION     0.72     2.44    11.28     0  02:21        2.44
  HS02004824           JUNCTION     0.27     2.01    11.41     0  02:21        2.01
  HS02004830           JUNCTION     0.26     2.03    11.50     0  02:21        2.03
  HS02004837           JUNCTION     0.23     2.04    11.62     0  02:21        2.04
  HS02004842           JUNCTION     0.53     2.22    11.49     0  02:21        2.22
  HS02004848           JUNCTION     0.20     2.07    11.67     0  02:21        2.07
  HS02004852           JUNCTION     0.21     2.10    11.62     0  02:21        2.10
  HS02004856           JUNCTION     0.27     2.07    11.50     0  02:09        2.07
  HS02004862           JUNCTION     0.23     2.00    11.38     0  02:21        2.00
  HS02004870           JUNCTION     0.22     2.10    11.39     0  02:21        2.10
  HS02004876           JUNCTION     0.28     2.26    11.29     0  02:21        2.26
  HS02004881           JUNCTION     0.20     1.98    11.01     0  02:21        1.98
  HS02004901           JUNCTION     0.37     1.42    11.24     0  02:05        1.42
  WS02001211           JUNCTION     0.66     0.83     5.67     0  02:27        0.83
  WS02001212           JUNCTION     0.40     0.59     5.66     0  02:27        0.59
  WS02001213           JUNCTION     0.62     0.89     5.65     0  02:28        0.89
  WS02003059           JUNCTION     0.69     0.96     5.65     0  02:26        0.96
  WS02003060           JUNCTION     0.40     0.71     5.64     0  02:25        0.70
  WS02003066           JUNCTION     0.22     0.47     6.02     0  02:24        0.47
  WS02003067           JUNCTION     0.51     0.90     6.22     0  02:23        0.90
  WS02003069           JUNCTION     0.45     0.80     5.38     0  02:26        0.80
  WS02003072           JUNCTION     0.51     0.83     5.20     0  02:27        0.83
  WS02003073           JUNCTION     0.31     0.53     4.59     0  02:27        0.53
  WS02004138           JUNCTION     0.13     0.14     7.39     0  00:29        0.14
  WS02004139           JUNCTION     0.60     0.76     5.67     0  02:28        0.76
  WS02004401           JUNCTION     0.82     2.09     8.09     0  02:24        2.09
  WS02004402           JUNCTION     0.83     2.02     7.98     0  02:24        2.02
  WS02004403           JUNCTION     0.83     1.93     7.86     0  02:24        1.93
  WS02004404           JUNCTION     0.88     1.92     7.77     0  02:24        1.92
  WS02004405           JUNCTION     0.87     1.86     7.71     0  02:24        1.86
  WS02004406           JUNCTION     0.85     1.72     7.55     0  02:24        1.72
  WS02004407           JUNCTION     0.30     1.06     7.37     0  02:24        1.05
  WS02004409           JUNCTION     0.57     1.48     7.25     0  02:24        1.46
  WS02004410           JUNCTION     0.56     1.37     7.09     0  02:24        1.36
  WS02004411           JUNCTION     0.55     1.27     6.95     0  02:24        1.25
  WS02004412           JUNCTION     0.54     1.15     6.79     0  02:24        1.14
  WS02004413           JUNCTION     0.65     1.17     6.64     0  02:25        1.16
  WS02006109           JUNCTION     1.12     2.64     9.26     0  02:05        2.64
  WS02006110           JUNCTION     1.03     2.46     9.05     0  02:24        2.46
  WS02006111           JUNCTION     0.53     1.95     8.66     0  02:24        1.95
  WS02006112           JUNCTION     1.07     2.64     8.52     0  02:24        2.64
  WS02006113           JUNCTION     0.60     1.97     8.86     0  02:24        1.96
  WS02006115           JUNCTION     0.77     2.21     8.35     0  02:24        2.21
  WS02006116           JUNCTION     0.82     2.19     8.23     0  02:24        2.19
  WS02006228           JUNCTION     1.19     3.03     9.68     0  02:09        3.03
  WS02006229           JUNCTION     1.22     3.25     9.94     0  02:17        3.25
  WS02006230           JUNCTION     1.11     2.65     9.39     0  01:59        2.65
  WS02006231           JUNCTION     0.81     2.21     9.34     0  02:21        2.21
  WS02006232           JUNCTION     0.88     2.18     9.22     0  01:58        2.18
  WS02006234           JUNCTION     0.75     1.96     9.12     0  01:55        1.96
  WS02006235           JUNCTION     0.76     2.00     9.16     0  01:47        2.00
  WS02006238           JUNCTION     0.78     2.15     9.29     0  03:07        2.15
  WS02006239           JUNCTION     0.71     2.03     9.24     0  03:07        2.03
  WS02006240           JUNCTION     0.65     1.91     9.20     0  03:07        1.91
  WS02006242           JUNCTION     0.67     1.55     8.82     0  01:30        1.55
  WS02006243           JUNCTION     0.56     1.39     8.81     0  01:47        1.38
  WS02006245           JUNCTION     0.54     1.30     8.78     0  01:47        1.27
  WS02006247           JUNCTION     0.53     1.25     8.75     0  01:47        1.24
  WS02006248           JUNCTION     0.48     1.10     8.69     0  01:32        1.10
  WS02006249           JUNCTION     0.49     1.09     8.69     0  01:33        1.09
  WS02006251           JUNCTION     0.65     2.17     9.84     0  02:21        2.17
  WS02006252           JUNCTION     0.44     1.50     9.74     0  00:00        1.50
  WS02006253           JUNCTION     0.77     3.20    10.84     0  02:21        3.20
  WS02006256           JUNCTION     1.13     2.35     9.28     0  00:00        2.35
  WS02006280           JUNCTION     0.41     1.76    10.03     0  02:09        1.75
  WS02006284           JUNCTION     0.67     1.97    10.37     0  02:21        1.97
  WS02006287           JUNCTION     0.40     1.76    10.72     0  02:21        1.76
  WSF200               JUNCTION     0.23     0.54     5.77     0  02:25        0.54
  YS02001580           JUNCTION     0.12     1.05     9.59     0  01:34        0.93
  YS02001583           JUNCTION     0.15     1.14     9.64     0  01:34        0.82
  YS02001586           JUNCTION     0.25     1.13     9.30     0  01:33        1.13
  YS02001590           JUNCTION     0.36     1.40     9.26     0  01:32        1.40
  YS02001593           JUNCTION     0.28     1.38     9.24     0  01:47        1.38
  YS02001596           JUNCTION     0.39     1.80     9.22     0  01:47        1.80
  YS02001600           JUNCTION     0.48     1.87     9.00     0  01:32        1.87
  YS02001601           JUNCTION     0.68     2.06     8.90     0  01:32        2.06
  YS02001602           JUNCTION     0.58     1.87     8.77     0  01:34        1.87
  YS02001605           JUNCTION     0.54     1.78     8.68     0  01:34        1.78
  YS02001607           JUNCTION     0.52     1.68     8.53     0  01:47        1.68
  YS02001610           JUNCTION     0.56     1.68     8.48     0  01:34        1.68
  YS02001613           JUNCTION     0.52     1.68     8.52     0  01:34        1.66
  YS02001616           JUNCTION     0.45     1.61     8.52     0  01:34        1.60
  YS02001619           JUNCTION     0.42     1.61     8.54     0  01:34        1.60
  YS02001622           JUNCTION     0.41     1.62     8.52     0  01:34        1.57
  YS02001625           JUNCTION     0.68     1.78     8.38     0  01:34        1.78
  YS02001629           JUNCTION     0.55     1.85     8.40     0  01:34        1.85
  YS02001633           JUNCTION     0.63     2.04     8.50     0  01:36        2.03
  YS02001641           JUNCTION     0.61     1.96     8.40     0  01:36        1.95
  YS02001644           JUNCTION     0.60     1.92     8.35     0  01:36        1.92
  YS02001647           JUNCTION     0.38     1.81     8.42     0  01:37        1.79
  YS02001649           JUNCTION     0.44     2.05     8.44     0  01:37        1.95
  YS02001652           JUNCTION     0.32     2.04     8.64     0  01:37        1.80
  YS02001655           JUNCTION     0.25     1.97     8.82     0  01:37        1.61
  YS02001658           JUNCTION     0.18     1.85     9.00     0  01:37        1.38
  YS02001661           JUNCTION     0.19     1.78     9.18     0  01:37        1.19
  YS02001664           JUNCTION     0.07     1.41     9.34     0  01:37        0.71
  YS02001745           JUNCTION     0.09     2.03     9.55     0  01:37        0.79
  YS02001748           JUNCTION     0.17     2.27     9.35     0  01:37        1.19
  YS02001751           JUNCTION     0.22     2.20     9.08     0  01:37        1.38
  YS02001754           JUNCTION     0.28     2.19     8.80     0  01:37        1.63
  YS02001757           JUNCTION     0.45     2.21     8.47     0  01:37        1.98
  YS02001759           JUNCTION     0.39     2.21     8.57     0  01:37        1.97
  YS02001762           JUNCTION     0.39     2.15     8.55     0  01:37        1.95
  YS02001765           JUNCTION     0.36     2.10     8.55     0  01:37        1.91
  YS02001767           JUNCTION     0.36     2.03     8.52     0  01:36        1.89
  YS02001770           JUNCTION     0.38     1.95     8.44     0  01:36        1.91
  YS02001774           JUNCTION     0.44     2.01     8.43     0  01:36        1.97
  YS02001779           JUNCTION     0.27     1.68     8.37     0  01:36        1.68
  YS02001783           JUNCTION     0.29     1.29     7.43     0  01:35        1.24
  YS02001784           JUNCTION     0.30     1.30     7.37     0  01:47        1.30
  YS02001786           JUNCTION     0.25     1.03     7.06     0  01:35        0.88
  YS02001788           JUNCTION     0.18     0.64     6.61     0  01:36        0.63
  YS02001790           JUNCTION     0.21     0.73     6.38     0  01:37        0.72
  YS02001791           JUNCTION     0.13     0.44     5.91     0  01:41        0.43
  YS02001793           JUNCTION     0.07     0.31     5.14     0  01:36        0.27
  YS02001882           JUNCTION     0.36     1.83     8.55     0  01:35        1.65
  YS02001884           JUNCTION     0.45     1.93     8.55     0  01:35        1.75
  YS02001887           JUNCTION     0.53     1.94     8.48     0  01:35        1.83
  YS02001890           JUNCTION     0.56     1.81     8.32     0  01:35        1.81
  YS02001895           JUNCTION     0.33     1.66     8.41     0  01:35        1.57
  YS02001898           JUNCTION     0.34     1.77     8.51     0  01:35        1.56
  YS02001901           JUNCTION     0.45     1.83     8.43     0  01:47        1.83
  YS02001904           JUNCTION     0.43     1.69     8.32     0  01:53        1.69
  YS02001907           JUNCTION     0.76     1.96     8.25     0  01:35        1.96
  YS02001910           JUNCTION     0.55     2.04     8.55     0  01:35        1.88
  YS02001915           JUNCTION     0.36     2.00     8.72     0  01:35        1.79
  YS02001918           JUNCTION     0.20     1.81     8.88     0  01:35        1.52
  YS02001920           JUNCTION     0.28     2.12     9.13     0  01:36        1.62
  YS02001923           JUNCTION     0.15     2.03     9.29     0  01:36        1.42
  YS02001926           JUNCTION     0.19     1.90     9.35     0  01:36        1.26
  YS02001929           JUNCTION     0.11     1.78     9.47     0  01:36        1.05
  YS02006553           JUNCTION     0.76     2.07     8.35     0  01:47        2.07
  YS02006556           JUNCTION     0.73     1.97     8.28     0  01:37        1.97
  YS02006558           JUNCTION     0.77     2.02     8.29     0  01:37        2.02
  YS02006561           JUNCTION     0.18     1.01     7.67     0  01:35        0.91
  YS02163301           JUNCTION     0.58     1.93     8.45     0  01:34        1.92
  YS02163601           JUNCTION     0.67     2.06     8.46     0  01:36        2.03
  YS02164001           JUNCTION     0.60     2.10     8.56     0  01:47        2.10
  YSB1154              JUNCTION     0.55     2.10    11.16     0  02:17        2.10
  YSB1171              JUNCTION     0.70     1.95    10.85     0  02:09        1.95
  YSB1174              JUNCTION     0.50     1.92    11.02     0  02:21        1.92
  YSB6556              JUNCTION     0.45     1.80    10.97     0  02:21        1.80
  CC-1                 OUTFALL      0.00     0.00     0.00     0  00:00        0.00
  CC-2                 OUTFALL      0.00     0.00     0.00     0  00:00        0.00
  JK-1                 OUTFALL      0.00     0.00     0.00     0  00:00        0.00
  JK-2                 OUTFALL      0.00     0.00     0.00     0  00:00        0.00
  WSC                  OUTFALL      0.31     0.53     1.20     0  02:27        0.53
  CC-storage           STORAGE      0.90     1.73     7.23     0  02:12        1.73
  JK-storage           STORAGE      2.61     4.23     5.03     0  01:36        4.22
  XR-storage           STORAGE      7.90     9.26     7.26     0  08:00        9.26
  
  
  *******************
  Node Inflow Summary
  *******************
  
  -------------------------------------------------------------------------------------------------
                                  Maximum  Maximum                  Lateral       Total        Flow
                                  Lateral    Total  Time of Max      Inflow      Inflow     Balance
                                   Inflow   Inflow   Occurrence      Volume      Volume       Error
  Node                 Type           LPS      LPS  days hr:min    10^6 ltr    10^6 ltr     Percent
  -------------------------------------------------------------------------------------------------
  HS02004478           JUNCTION      0.00  2304.32     0  02:20           0        10.5      -0.009
  HS02004479           JUNCTION      0.00   373.63     0  02:13           0           1       0.062
  HS02004480           JUNCTION      0.00  2024.61     0  02:09           0        7.83       0.007
  HS02004770           JUNCTION   2498.80  2498.80     0  02:25        3.93        4.18       0.057
  HS02004777           JUNCTION      0.03   683.35     0  02:06    0.000864        2.17       0.230
  HS02004785           JUNCTION      0.15   682.78     0  02:06     0.00432        2.17      -0.008
  HS02004788           JUNCTION    854.33   918.89     0  02:25        1.39        3.56       0.000
  HS02004792           JUNCTION   3291.85  4211.22     0  02:25         5.5        9.06      -0.004
  HS02004799           JUNCTION    450.17  1729.59     0  02:08       0.663        7.16       0.038
  HS02004802           JUNCTION      0.00  1233.65     0  02:29           0        2.94       0.124
  HS02004807           JUNCTION    579.71  1776.21     0  02:25       0.847        3.22       0.111
  HS02004817           JUNCTION      0.60  1197.09     0  02:24      0.0173        2.42       0.664
  HS02004824           JUNCTION    954.99  1546.06     0  02:25        1.77        2.75      -0.004
  HS02004830           JUNCTION      0.15   595.30     0  02:24     0.00432        1.21       0.072
  HS02004837           JUNCTION    576.43   670.36     0  02:09        1.05        1.55       0.027
  HS02004842           JUNCTION      0.00   673.58     0  02:09           0       0.954       1.360
  HS02004848           JUNCTION    933.02   933.02     0  02:26        1.85        2.46      -0.012
  HS02004852           JUNCTION      0.00   910.05     0  02:08           0        2.14      -0.025
  HS02004856           JUNCTION    230.21   926.97     0  02:08       0.338        2.48       0.060
  HS02004862           JUNCTION    426.40  1186.39     0  02:25       0.784        3.26      -0.008
  HS02004870           JUNCTION    315.79  1256.31     0  02:29       0.464        3.64       0.001
  HS02004876           JUNCTION    367.96  1522.08     0  02:28       0.572        4.21       0.005
  HS02004881           JUNCTION    174.04  1672.65     0  02:25       0.252        4.46       0.001
  HS02004901           JUNCTION    561.67   827.45     0  02:25       0.833        1.34       0.114
  WS02001211           JUNCTION      7.35   205.34     0  03:09       0.212        5.44       0.612
  WS02001212           JUNCTION      0.00   213.06     0  03:08           0        5.41       0.291
  WS02001213           JUNCTION      0.00   218.48     0  03:07           0        5.39       0.332
  WS02003059           JUNCTION      0.00   224.32     0  03:07           0        5.38       0.595
  WS02003060           JUNCTION     16.53  1576.43     0  02:25       0.476        14.6       0.100
  WS02003066           JUNCTION      0.00  1376.26     0  02:24           0        8.76       0.017
  WS02003067           JUNCTION      0.00  1375.40     0  02:25           0        8.76       0.048
  WS02003069           JUNCTION      0.32  1569.84     0  02:26     0.00922        14.6       0.105
  WS02003072           JUNCTION      0.00  1569.26     0  02:26           0        14.6       0.143
  WS02003073           JUNCTION      1.82  1571.19     0  02:27      0.0524        14.6       0.148
  WS02004138           JUNCTION      0.00   380.00     0  00:00           0        5.25       0.057
  WS02004139           JUNCTION      0.32   193.48     0  00:29     0.00924        5.26       0.509
  WS02004401           JUNCTION      0.00  1375.19     0  02:25           0        8.86       0.115
  WS02004402           JUNCTION      0.00  1375.28     0  02:25           0        8.85       0.117
  WS02004403           JUNCTION      0.00  1374.45     0  02:24           0        8.84       0.113
  WS02004404           JUNCTION      0.16  1374.88     0  02:24     0.00467        8.84       0.093
  WS02004405           JUNCTION      0.04  1375.93     0  02:24      0.0011        8.83       0.143
  WS02004406           JUNCTION      0.00  1375.86     0  02:24           0        8.82       0.235
  WS02004407           JUNCTION      0.00  1376.05     0  02:24           0         8.8       0.014
  WS02004409           JUNCTION      0.00  1375.01     0  02:25           0         8.8       0.029
  WS02004410           JUNCTION      0.00  1374.51     0  02:25           0        8.79       0.052
  WS02004411           JUNCTION      0.00  1375.44     0  02:25           0        8.79       0.065
  WS02004412           JUNCTION      0.00  1374.77     0  02:25           0        8.78       0.087
  WS02004413           JUNCTION      0.00  1375.16     0  02:25           0        8.77       0.156
  WS02006109           JUNCTION      1.23  1288.89     0  02:20      0.0354         8.6       0.099
  WS02006110           JUNCTION      0.00  1123.33     0  02:43           0        8.16       0.112
  WS02006111           JUNCTION      0.00  1123.61     0  02:43           0        8.15       0.003
  WS02006112           JUNCTION    492.51  1374.83     0  02:25       0.743        8.89       0.162
  WS02006113           JUNCTION      0.00  1123.71     0  02:43           0        8.15       0.020
  WS02006115           JUNCTION      0.00  1375.11     0  02:25           0        8.88       0.101
  WS02006116           JUNCTION      0.00  1376.02     0  02:25           0        8.87       0.045
  WS02006228           JUNCTION      0.00  1289.07     0  02:20           0        8.57       0.068
  WS02006229           JUNCTION      0.00  2305.21     0  02:20           0        11.7       0.067
  WS02006230           JUNCTION     10.28  1025.91     0  02:20       0.296         4.4       0.093
  WS02006231           JUNCTION      0.00   453.33     0  02:17           0         2.8      -0.088
  WS02006232           JUNCTION      0.00   453.45     0  02:09           0        2.79       0.103
  WS02006234           JUNCTION      0.00   453.19     0  02:10           0        2.77      -0.117
  WS02006235           JUNCTION      0.00   416.78     0  02:25           0        2.85       0.111
  WS02006238           JUNCTION      0.00   416.86     0  02:17           0        2.54      -0.057
  WS02006239           JUNCTION      0.00   415.44     0  02:21           0        2.51      -0.082
  WS02006240           JUNCTION      0.00   415.90     0  02:17           0        2.49      -0.023
  WS02006242           JUNCTION      0.00   415.17     0  02:21           0        2.48       0.088
  WS02006243           JUNCTION      0.00   375.14     0  03:22           0        1.93      -0.111
  WS02006245           JUNCTION      0.00   375.12     0  03:22           0        1.92       0.187
  WS02006247           JUNCTION      0.00   375.10     0  03:22           0        1.92       0.033
  WS02006248           JUNCTION      0.00   375.08     0  03:22           0        2.25      -0.020
  WS02006249           JUNCTION      0.00  1384.07     0  02:25           0         6.4       0.034
  WS02006251           JUNCTION      0.08  1728.76     0  02:25     0.00222        6.64      -0.022
  WS02006252           JUNCTION      0.00   744.90     0  02:24           0        2.98      -0.346
  WS02006253           JUNCTION     55.64  1728.97     0  02:25      0.0784        4.54       0.000
  WS02006256           JUNCTION      0.00   300.00     0  00:00           0        1.86      -0.289
  WS02006280           JUNCTION      0.00  2304.02     0  02:20           0        10.5      -0.001
  WS02006284           JUNCTION      0.10  2303.11     0  02:20     0.00275        10.5       0.004
  WS02006287           JUNCTION      0.00  2304.17     0  02:27           0        10.5       0.006
  WSF200               JUNCTION      0.00  1375.80     0  02:25           0        8.76       0.008
  YS02001580           JUNCTION      0.00   190.31     0  01:34           0     0.00482      -2.303
  YS02001583           JUNCTION      0.00   283.16     0  01:34           0      0.0149     -11.667
  YS02001586           JUNCTION    742.66   742.71     0  01:41        1.78        1.79       0.106
  YS02001590           JUNCTION      0.00   318.44     0  01:53           0        1.36      -0.039
  YS02001593           JUNCTION      0.00   317.94     0  01:40           0        1.36       0.006
  YS02001596           JUNCTION      0.00   317.96     0  01:38           0        1.36      -0.004
  YS02001600           JUNCTION      0.00   317.99     0  01:47           0        1.36       0.007
  YS02001601           JUNCTION   1313.17  1630.73     0  01:40        2.33        3.69       0.025
  YS02001602           JUNCTION      0.00   578.61     0  01:34           0        2.27       0.018
  YS02001605           JUNCTION      0.00   578.48     0  01:34           0        2.14       0.020
  YS02001607           JUNCTION      0.00   578.20     0  01:34           0        2.14       0.075
  YS02001610           JUNCTION      0.00   702.70     0  01:41           0        2.36       0.097
  YS02001613           JUNCTION      0.00   521.87     0  01:34           0        1.86       0.079
  YS02001616           JUNCTION      0.00   506.07     0  01:34           0        1.87       0.012
  YS02001619           JUNCTION   1287.93  1287.93     0  01:41        2.76        4.39      -0.014
  YS02001622           JUNCTION      0.00   957.00     0  01:37           0        4.16      -0.007
  YS02001625           JUNCTION      0.00  1305.41     0  01:42           0        4.35       0.215
  YS02001629           JUNCTION      0.00   884.17     0  01:34           0        3.36      -0.011
  YS02001633           JUNCTION   1011.29  1422.36     0  01:35        1.77        4.87       0.070
  YS02001641           JUNCTION      0.00  1416.17     0  01:35           0        4.63       0.062
  YS02001644           JUNCTION    866.71  1937.30     0  01:35        1.46        6.08       0.057
  YS02001647           JUNCTION      0.00  1940.54     0  01:35           0        5.68       0.006
  YS02001649           JUNCTION      0.00  2186.71     0  01:36           0        7.09       0.009
  YS02001652           JUNCTION      0.00  1043.27     0  01:38           0        1.41      -0.090
  YS02001655           JUNCTION      0.15  1042.16     0  01:38     0.00443        1.41      -0.067
  YS02001658           JUNCTION      0.00  1040.86     0  01:38           0        1.41      -0.016
  YS02001661           JUNCTION      0.00  1039.24     0  01:38           0        1.41       0.022
  YS02001664           JUNCTION    871.53   871.53     0  01:39         1.4         1.4      -0.030
  YS02001745           JUNCTION    541.27   737.18     0  01:36       0.794       0.796       0.223
  YS02001748           JUNCTION      0.04   953.80     0  01:36      0.0013       0.803      -0.327
  YS02001751           JUNCTION      0.01   632.58     0  01:37    0.000317       0.813       0.099
  YS02001754           JUNCTION      0.26   633.35     0  01:37     0.00749       0.828      -0.174
  YS02001757           JUNCTION      0.00  3434.64     0  01:37           0        10.6       0.023
  YS02001759           JUNCTION    784.63  1453.24     0  01:37        1.16        2.69      -0.006
  YS02001762           JUNCTION      0.00   718.09     0  01:37           0        1.52       0.015
  YS02001765           JUNCTION      0.00   723.96     0  01:37           0        1.52       0.031
  YS02001767           JUNCTION      0.54   729.47     0  01:37      0.0154        1.52      -0.012
  YS02001770           JUNCTION   1075.92  1075.92     0  01:39         1.7        1.75      -0.028
  YS02001774           JUNCTION      0.00   641.87     0  01:36           0       0.265       0.417
  YS02001779           JUNCTION      0.01   623.77     0  01:36    0.000144       0.219      -0.676
  YS02001783           JUNCTION      0.00  1167.42     0  01:36           0        3.95       0.006
  YS02001784           JUNCTION      1.06  1167.92     0  01:36      0.0305        3.98       0.012
  YS02001786           JUNCTION      0.06  1168.19     0  01:37     0.00162        3.98       0.016
  YS02001788           JUNCTION      0.07  1168.48     0  01:37     0.00204        3.99       0.007
  YS02001790           JUNCTION      0.15  1197.06     0  01:36     0.00446        3.99       0.019
  YS02001791           JUNCTION      0.00  1303.02     0  01:37           0        3.99      -0.024
  YS02001793           JUNCTION      0.00  1254.71     0  01:38           0        3.99       0.006
  YS02001882           JUNCTION      0.00    90.14     0  01:35           0      0.0126       4.101
  YS02001884           JUNCTION      0.00   159.30     0  01:34           0      0.0486       5.305
  YS02001887           JUNCTION    846.87   846.90     0  01:38         1.2        1.23       0.366
  YS02001890           JUNCTION      0.00   847.09     0  01:38           0        1.19       0.429
  YS02001895           JUNCTION      0.00   649.20     0  01:35           0        1.09       0.138
  YS02001898           JUNCTION      0.00   647.02     0  01:35           0        1.09      -0.021
  YS02001901           JUNCTION      0.00   643.05     0  01:35           0        1.09       0.303
  YS02001904           JUNCTION      0.00   638.87     0  01:35           0        1.09       0.274
  YS02001907           JUNCTION      0.00  1879.78     0  01:39           0        3.48       0.531
  YS02001910           JUNCTION      0.00  1358.10     0  01:39           0        2.39       0.304
  YS02001915           JUNCTION    880.62  1357.59     0  01:39        1.47        2.44       0.058
  YS02001918           JUNCTION      0.00   829.34     0  01:35           0       0.995      -0.030
  YS02001920           JUNCTION      2.87   767.09     0  01:36      0.0827        0.97       0.097
  YS02001923           JUNCTION      0.04  1064.55     0  01:35     0.00109       0.869      -0.182
  YS02001926           JUNCTION      0.05  1343.83     0  01:36      0.0015       0.847      -0.203
  YS02001929           JUNCTION    450.23  1143.85     0  01:36       0.829       0.835      -0.412
  YS02006553           JUNCTION      0.00   788.07     0  01:57           0        2.35       0.506
  YS02006556           JUNCTION      0.00   788.21     0  01:57           0        2.36       0.345
  YS02006558           JUNCTION   1069.45  1194.34     0  01:35        1.66        3.99       0.092
  YS02006561           JUNCTION      0.00  1199.52     0  01:35           0        3.95      -0.000
  YS02163301           JUNCTION      0.00   856.63     0  01:35           0        3.35       0.046
  YS02163601           JUNCTION      0.11  1421.52     0  01:35     0.00317        4.63       0.105
  YS02164001           JUNCTION      0.00  1419.89     0  01:35           0        4.63       0.048
  YSB1154              JUNCTION    590.35   590.35     0  02:25       0.908       0.909       0.150
  YSB1171              JUNCTION      0.00  1310.40     0  02:25           0        1.78       0.331
  YSB1174              JUNCTION    481.85   481.85     0  02:25        0.68        0.68       0.172
  YSB6556              JUNCTION      0.00   590.48     0  02:25           0        0.91       0.112
  CC-1                 OUTFALL       0.00   683.00     0  00:00           0        4.27       0.000
  CC-2                 OUTFALL       0.00   683.00     0  00:00           0        4.09       0.000
  JK-1                 OUTFALL       0.00  1000.00     0  00:00           0        2.18       0.000
  JK-2                 OUTFALL       0.00  1000.00     0  00:00           0      0.0226       0.000
  WSC                  OUTFALL       0.00  1572.18     0  02:27           0        14.6       0.000
  CC-storage           STORAGE       0.00  3434.36     0  01:37           0        12.8      -0.165
  JK-storage           STORAGE       0.00  1294.25     0  01:43           0        4.14      -0.243
  XR-storage           STORAGE     200.00   200.00     0  00:00        5.76        6.36       0.001
  
  
  **********************
  Node Surcharge Summary
  **********************
  
  Surcharging occurs when water rises above the top of the highest conduit.
  ---------------------------------------------------------------------
                                               Max. Height   Min. Depth
                                   Hours       Above Crown    Below Rim
  Node                 Type      Surcharged         Meters       Meters
  ---------------------------------------------------------------------
  HS02004478           JUNCTION        0.68          0.682        0.258
  HS02004479           JUNCTION        0.83          0.913        0.137
  HS02004480           JUNCTION        0.88          0.971        0.129
  HS02004770           JUNCTION        0.77          0.720        0.000
  HS02004777           JUNCTION        0.78          0.780        0.000
  HS02004785           JUNCTION        0.72          0.790        0.000
  HS02004788           JUNCTION        0.71          0.720        0.000
  HS02004792           JUNCTION        0.85          0.900        0.000
  HS02004799           JUNCTION        1.02          1.060        0.000
  HS02004802           JUNCTION        0.90          1.091        0.119
  HS02004807           JUNCTION        0.86          1.220        0.000
  HS02004817           JUNCTION        1.50          1.737        0.003
  HS02004824           JUNCTION        0.70          1.310        0.000
  HS02004830           JUNCTION        0.68          1.330        0.000
  HS02004837           JUNCTION        0.61          1.340        0.000
  HS02004842           JUNCTION        0.78          1.520        0.000
  HS02004848           JUNCTION        0.58          1.370        0.000
  HS02004852           JUNCTION        0.61          1.404        0.016
  HS02004856           JUNCTION        0.60          1.300        0.000
  HS02004862           JUNCTION        0.64          1.300        0.000
  HS02004870           JUNCTION        0.66          1.400        0.000
  HS02004876           JUNCTION        0.74          1.560        0.000
  HS02004881           JUNCTION        0.72          1.279        0.171
  HS02004901           JUNCTION        0.77          0.720        0.000
  WS02004401           JUNCTION        1.80          1.087        0.573
  WS02004402           JUNCTION        1.83          1.016        0.724
  WS02004403           JUNCTION        1.84          0.925        1.105
  WS02004404           JUNCTION        1.90          0.922        1.858
  WS02004405           JUNCTION        1.88          0.863        1.937
  WS02004406           JUNCTION        1.87          0.721        1.729
  WS02004407           JUNCTION        0.08          0.060        2.280
  WS02004409           JUNCTION        1.40          0.476        1.884
  WS02004410           JUNCTION        1.30          0.368        2.172
  WS02004411           JUNCTION        1.20          0.267        2.263
  WS02004412           JUNCTION        1.07          0.146        2.164
  WS02004413           JUNCTION        1.61          0.169        2.031
  WS02006109           JUNCTION        2.09          1.820        0.000
  WS02006110           JUNCTION        1.97          1.554        0.296
  WS02006111           JUNCTION        1.58          1.141        0.729
  WS02006112           JUNCTION        1.99          1.637        0.043
  WS02006113           JUNCTION        1.60          1.166        0.764
  WS02006115           JUNCTION        1.70          1.200        1.050
  WS02006116           JUNCTION        1.72          1.129        1.161
  WS02006228           JUNCTION        2.08          2.200        0.000
  WS02006229           JUNCTION        1.25          1.070        0.000
  WS02006230           JUNCTION        1.89          1.570        0.000
  WS02006231           JUNCTION        1.91          1.505        0.025
  WS02006232           JUNCTION        1.98          1.480        0.000
  WS02006234           JUNCTION        1.92          1.240        0.000
  WS02006235           JUNCTION        1.93          1.290        0.000
  WS02006238           JUNCTION        1.94          1.430        0.000
  WS02006239           JUNCTION        1.91          1.290        0.000
  WS02006240           JUNCTION        1.89          1.199        0.191
  WS02006242           JUNCTION        1.91          0.820        0.000
  WS02006243           JUNCTION        1.87          0.684        0.086
  WS02006245           JUNCTION        1.85          0.588        0.262
  WS02006247           JUNCTION        1.86          0.535        0.225
  WS02006248           JUNCTION        1.84          0.380        0.000
  WS02006249           JUNCTION        1.84          0.390        0.000
  WS02006251           JUNCTION        1.81          1.143        0.037
  WS02006252           JUNCTION        1.84          1.100        0.000
  WS02006253           JUNCTION        1.81          2.156        0.324
  WS02006256           JUNCTION        5.24          2.050        0.000
  WS02006280           JUNCTION        1.04          0.712        0.068
  WS02006284           JUNCTION        0.93          0.687        0.113
  WS02006287           JUNCTION        0.79          0.761        0.129
  YS02001580           JUNCTION        0.65          0.450        0.000
  YS02001583           JUNCTION        0.66          0.500        0.000
  YS02001586           JUNCTION        0.81          0.510        0.000
  YS02001590           JUNCTION        0.88          0.750        0.000
  YS02001593           JUNCTION        0.88          0.758        0.082
  YS02001596           JUNCTION        0.99          1.070        0.000
  YS02001600           JUNCTION        1.14          1.190        0.000
  YS02001601           JUNCTION        1.56          1.440        0.000
  YS02001602           JUNCTION        1.40          1.270        0.000
  YS02001605           JUNCTION        1.33          1.180        0.000
  YS02001607           JUNCTION        0.87          0.680        0.000
  YS02001610           JUNCTION        0.90          0.680        0.000
  YS02001613           JUNCTION        0.87          0.681        0.019
  YS02001616           JUNCTION        0.83          0.610        0.000
  YS02001619           JUNCTION        0.81          0.610        0.000
  YS02001622           JUNCTION        0.81          0.620        0.000
  YS02001625           JUNCTION        1.00          0.780        0.000
  YS02001629           JUNCTION        0.76          0.470        0.000
  YS02001633           JUNCTION        1.03          1.024        0.036
  YS02001641           JUNCTION        0.99          0.962        0.138
  YS02001644           JUNCTION        0.97          0.920        0.000
  YS02001647           JUNCTION        0.77          0.806        0.094
  YS02001649           JUNCTION        0.91          1.050        0.000
  YS02001652           JUNCTION        0.70          1.010        0.120
  YS02001655           JUNCTION        0.50          0.967        0.233
  YS02001658           JUNCTION        0.23          0.855        0.445
  YS02001661           JUNCTION        0.02          0.709        0.681
  YS02001664           JUNCTION        0.01          0.414        0.896
  YS02001745           JUNCTION        0.01          1.030        0.320
  YS02001748           JUNCTION        0.17          1.190        0.000
  YS02001751           JUNCTION        0.33          1.200        0.000
  YS02001754           JUNCTION        0.59          1.137        0.013
  YS02001757           JUNCTION        0.99          1.210        0.000
  YS02001759           JUNCTION        0.89          1.210        0.000
  YS02001762           JUNCTION        0.86          1.150        0.000
  YS02001765           JUNCTION        0.80          1.100        0.000
  YS02001767           JUNCTION        0.76          1.030        0.000
  YS02001770           JUNCTION        0.73          0.920        0.000
  YS02001774           JUNCTION        0.83          1.007        0.043
  YS02001779           JUNCTION        0.58          0.680        0.000
  YS02001783           JUNCTION        0.53          0.492        1.108
  YS02001784           JUNCTION        0.51          0.503        0.987
  YS02001786           JUNCTION        0.41          0.232        1.198
  YS02001882           JUNCTION        0.48          0.830        0.000
  YS02001884           JUNCTION        0.49          0.870        0.000
  YS02001887           JUNCTION        0.52          0.894        0.056
  YS02001890           JUNCTION        0.54          0.760        0.000
  YS02001895           JUNCTION        0.47          0.663        0.087
  YS02001898           JUNCTION        0.46          0.740        0.000
  YS02001901           JUNCTION        0.51          0.825        0.045
  YS02001904           JUNCTION        0.50          0.686        0.164
  YS02001907           JUNCTION        0.72          0.950        0.000
  YS02001910           JUNCTION        0.56          1.040        0.060
  YS02001915           JUNCTION        0.48          1.000        0.000
  YS02001918           JUNCTION        0.40          0.810        0.000
  YS02001920           JUNCTION        0.41          1.120        0.020
  YS02001923           JUNCTION        0.08          0.820        0.000
  YS02001926           JUNCTION        0.11          0.900        0.000
  YS02001929           JUNCTION        0.01          0.780        0.000
  YS02006553           JUNCTION        0.73          1.066        0.124
  YS02006556           JUNCTION        0.64          0.927        0.423
  YS02006558           JUNCTION        0.63          0.920        0.480
  YS02006561           JUNCTION        0.36          0.210        0.940
  YS02163301           JUNCTION        1.01          0.930        0.100
  YS02163601           JUNCTION        1.06          1.062        0.018
  YS02164001           JUNCTION        0.99          1.098        0.002
  YSB1154              JUNCTION        1.18          1.400        0.000
  YSB1171              JUNCTION        1.19          1.100        0.000
  YSB1174              JUNCTION        1.07          1.216        0.034
  YSB6556              JUNCTION        0.98          1.100        0.000
  
  
  *********************
  Node Flooding Summary
  *********************
  
  Flooding refers to all water that overflows a node, whether it ponds or not.
  --------------------------------------------------------------------------
                                                             Total   Maximum
                                 Maximum   Time of Max       Flood    Ponded
                        Hours       Rate    Occurrence      Volume     Depth
  Node                 Flooded       LPS   days hr:min    10^6 ltr    Meters
  --------------------------------------------------------------------------
  HS02004770              0.57   2168.56      0  02:25       1.496     0.000
  HS02004777              0.01     34.77      0  02:05       0.000     0.000
  HS02004785              0.01     62.34      0  02:05       0.000     0.000
  HS02004788              0.01     27.49      0  02:05       0.000     0.000
  HS02004792              0.53   3067.61      0  02:25       2.565     0.000
  HS02004799              0.27    286.65      0  02:25       0.139     0.000
  HS02004807              0.20    544.23      0  02:25       0.249     0.000
  HS02004824              0.15    349.80      0  02:25       0.117     0.000
  HS02004830              0.01      0.99      0  02:21       0.000     0.000
  HS02004837              0.01      0.79      0  02:21       0.000     0.000
  HS02004842              0.14    382.36      0  02:25       0.107     0.000
  HS02004848              0.01      1.24      0  02:21       0.000     0.000
  HS02004856              0.01    159.92      0  02:09       0.000     0.000
  HS02004862              0.12    371.86      0  02:25       0.084     0.000
  HS02004870              0.01      0.44      0  02:21       0.000     0.000
  HS02004876              0.01      0.68      0  02:21       0.000     0.000
  HS02004901              0.65    827.31      0  02:25       1.092     0.000
  WS02006109              0.58    405.18      0  02:24       0.434     0.000
  WS02006228              0.01      1.77      0  02:09       0.000     0.000
  WS02006229              0.01      1.01      0  02:17       0.000     0.000
  WS02006230              0.94    573.09      0  02:20       1.335     0.000
  WS02006232              0.18      0.86      0  01:58       0.000     0.000
  WS02006234              1.04    129.09      0  02:09       0.410     0.000
  WS02006235              0.01      0.57      0  01:47       0.000     0.000
  WS02006238              0.01      0.09      0  03:07       0.000     0.000
  WS02006239              0.01      0.04      0  03:07       0.000     0.000
  WS02006242              1.20    138.06      0  02:17       0.539     0.000
  WS02006248              1.56    339.24      0  02:17       1.653     0.000
  WS02006249              1.81   1323.20      0  02:25       5.467     0.000
  WS02006252              0.66    744.73      0  02:25       0.901     0.000
  WS02006256              1.72    298.04      0  02:31       1.084     0.000
  YS02001580              0.01    150.50      0  01:34       0.001     0.000
  YS02001583              0.01    188.34      0  01:34       0.000     0.000
  YS02001586              0.53    425.10      0  01:41       0.416     0.000
  YS02001590              0.01    121.67      0  01:32       0.000     0.000
  YS02001596              0.01      0.20      0  01:47       0.000     0.000
  YS02001600              0.01      5.73      0  01:47       0.000     0.000
  YS02001601              0.73   1232.88      0  01:40       1.419     0.000
  YS02001602              0.63     61.96      0  01:47       0.129     0.000
  YS02001605              0.01      1.95      0  01:34       0.000     0.000
  YS02001607              0.01      0.17      0  01:47       0.000     0.000
  YS02001610              0.56    702.27      0  01:41       0.726     0.000
  YS02001616              0.01     86.82      0  01:34       0.001     0.000
  YS02001619              0.01    184.89      0  01:34       0.001     0.000
  YS02001622              0.01    165.79      0  01:34       0.000     0.000
  YS02001625              0.54   1305.23      0  01:42       1.216     0.000
  YS02001629              0.12    339.41      0  01:38       0.075     0.000
  YS02001644              0.19   1049.55      0  01:38       0.390     0.000
  YS02001649              0.01    225.49      0  01:37       0.003     0.000
  YS02001748              0.01    313.66      0  01:37       0.001     0.000
  YS02001751              0.01    106.84      0  01:37       0.001     0.000
  YS02001757              0.01     76.08      0  01:37       0.000     0.000
  YS02001759              0.01     26.53      0  01:37       0.000     0.000
  YS02001762              0.01     40.59      0  01:37       0.000     0.000
  YS02001765              0.01     15.75      0  01:37       0.000     0.000
  YS02001767              0.01    115.83      0  01:36       0.000     0.000
  YS02001770              0.01     78.30      0  01:37       0.001     0.000
  YS02001779              0.17    597.84      0  01:36       0.200     0.000
  YS02001882              0.01     51.07      0  01:35       0.000     0.000
  YS02001884              0.01     40.79      0  01:35       0.000     0.000
  YS02001890              0.16    311.05      0  01:38       0.095     0.000
  YS02001898              0.01    278.86      0  01:35       0.001     0.000
  YS02001907              0.34   1772.63      0  01:39       1.117     0.000
  YS02001915              0.01     42.00      0  01:35       0.000     0.000
  YS02001918              0.01    282.47      0  01:35       0.004     0.000
  YS02001923              0.01     32.46      0  01:36       0.000     0.000
  YS02001926              0.01     38.84      0  01:36       0.000     0.000
  YS02001929              0.01    920.68      0  01:36       0.008     0.000
  YSB1154                 0.01      0.37      0  02:21       0.000     0.000
  YSB1171                 0.40   1309.62      0  02:25       0.966     0.000
  YSB6556                 0.01      0.41      0  02:21       0.000     0.000
  
  
  **********************
  Storage Volume Summary
  **********************
  
  --------------------------------------------------------------------------------------------------
                         Average     Avg  Evap Exfil       Maximum     Max    Time of Max    Maximum
                          Volume    Pcnt  Pcnt  Pcnt        Volume    Pcnt     Occurrence    Outflow
  Storage Unit           1000 m3    Full  Loss  Loss       1000 m3    Full    days hr:min        LPS
  --------------------------------------------------------------------------------------------------
  CC-storage               2.510      39     0     0         4.811      75       0  02:12    1779.37
  JK-storage               0.131      45     0     0         0.213      73       0  01:36    2300.00
  XR-storage               0.949      66     0     0         1.111      77       0  08:00     380.00
  
  
  ***********************
  Outfall Loading Summary
  ***********************
  
  -----------------------------------------------------------
                         Flow       Avg       Max       Total
                         Freq      Flow      Flow      Volume
  Outfall Node           Pcnt       LPS       LPS    10^6 ltr
  -----------------------------------------------------------
  CC-1                  34.17    683.00    683.00       4.270
  CC-2                  32.76    683.00    683.00       4.085
  JK-1                  12.84   1000.00   1000.00       2.180
  JK-2                   0.10   1000.00   1000.00       0.023
  WSC                   99.94    666.15   1572.18      14.562
  -----------------------------------------------------------
  System                35.96   4032.15   1572.18      25.120
  
  
  ********************
  Link Flow Summary
  ********************
  
  -----------------------------------------------------------------------------
                                 Maximum  Time of Max   Maximum    Max/    Max/
                                  |Flow|   Occurrence   |Veloc|    Full    Full
  Link                 Type          LPS  days hr:min     m/sec    Flow   Depth
  -----------------------------------------------------------------------------
  1                    CONDUIT   1572.18     0  02:27      3.74    0.55    0.53
  HS02004478WS02006287 CONDUIT   2304.17     0  02:27      2.56    0.65    1.00
  HS02004479HS02004480 CONDUIT    373.74     0  02:13      0.53    0.36    1.00
  HS02004480HS02004478 CONDUIT   2021.37     0  02:09      2.89    8.51    1.00
  HS02004770HS02004777 CONDUIT    683.32     0  02:06      0.98    1.25    1.00
  HS02004777HS02004785 CONDUIT    682.63     0  02:06      1.03    0.84    1.00
  HS02004785HS02004788 CONDUIT    681.21     0  02:06      1.36    5.14    1.00
  HS02004788HS02004792 CONDUIT    919.37     0  02:25      1.44    0.61    1.00
  HS02004792HS02004799 CONDUIT   1618.09     0  02:07      2.31    0.99    1.00
  HS02004799HS02004480 CONDUIT   1729.69     0  02:08      2.47    2.19    1.00
  HS02004802HS02004478 CONDUIT   1234.22     0  02:29      1.76    1.09    1.00
  HS02004807HS02004802 CONDUIT   1233.65     0  02:29      1.76    2.36    1.00
  HS02004817HS02004807 CONDUIT   1197.05     0  02:25      1.71    0.71    1.00
  HS02004817HS02004824 CONDUIT   1196.49     0  02:24      1.71    0.54    1.00
  HS02004824HS02004830 CONDUIT    596.08     0  02:25      0.85    0.78    1.00
  HS02004830HS02004837 CONDUIT    595.15     0  02:24      0.85    0.59    1.00
  HS02004837HS02004842 CONDUIT    673.58     0  02:09      0.96    0.40    1.00
  HS02004842HS02004848 CONDUIT    674.66     0  02:09      1.03    0.39    1.00
  HS02004848HS02004852 CONDUIT    910.05     0  02:08      1.49    1.03    1.00
  HS02004852HS02004856 CONDUIT    865.37     0  02:08      1.40    0.99    1.00
  HS02004856HS02004862 CONDUIT    891.77     0  02:08      1.60    0.89    1.00
  HS02004862HS02004870 CONDUIT   1078.98     0  02:30      1.71    1.17    1.00
  HS02004870HS02004876 CONDUIT   1256.04     0  02:29      1.79    0.83    1.00
  HS02004876HS02004881 CONDUIT   1522.60     0  02:28      2.19   16.19    1.00
  HS02004881HS02006253 CONDUIT   1673.33     0  02:25      2.39    0.33    1.00
  HS02004901HS02004770 CONDUIT    265.79     0  02:39      0.38    1.00    1.00
  WS02001211WS02001212 CONDUIT    213.06     0  03:08      0.54    0.16    0.71
  WS02001212WS02001213 CONDUIT    218.48     0  03:07      1.04    0.34    0.58
  WS02001213WS02003059 CONDUIT    224.32     0  03:07      0.47    0.37    0.91
  WS02003059WS02003060 CONDUIT    230.59     0  03:07      0.67    0.15    0.83
  WS02003060WS02003069 CONDUIT   1569.52     0  02:26      2.11    0.61    0.63
  WS02003066WSF200     CONDUIT   1375.80     0  02:25      3.28    0.23    0.40
  WS02003067WS02003066 CONDUIT   1376.26     0  02:24      2.07    0.44    0.57
  WS02003069WS02003072 CONDUIT   1569.26     0  02:26      1.92    0.76    0.68
  WS02003072WS02003073 CONDUIT   1569.37     0  02:27      2.09    3.39    0.63
  WS02004138WS02004139 CONDUIT    193.16     0  00:29      2.13    0.04    0.42
  WS02004139WS02001211 CONDUIT    197.99     0  03:09      0.54    0.25    0.62
  WS02004401WS02004402 CONDUIT   1375.28     0  02:25      1.75    1.65    1.00
  WS02004402WS02004403 CONDUIT   1374.45     0  02:24      1.75    1.97    1.00
  WS02004403WS02004404 CONDUIT   1374.71     0  02:24      1.75    0.99    1.00
  WS02004404WS02004405 CONDUIT   1375.89     0  02:24      1.75   13.48    1.00
  WS02004405WS02004406 CONDUIT   1375.86     0  02:24      1.75    2.71    1.00
  WS02004406WS02004407 CONDUIT   1376.05     0  02:24      1.75    0.61    1.00
  WS02004407WS02004409 CONDUIT   1375.01     0  02:25      1.92    0.49    1.00
  WS02004409WS02004410 CONDUIT   1374.51     0  02:25      1.75    1.78    1.00
  WS02004410WS02004411 CONDUIT   1375.44     0  02:25      1.75    1.88    1.00
  WS02004411WS02004412 CONDUIT   1374.77     0  02:25      1.75    1.95    1.00
  WS02004412WS02004413 CONDUIT   1375.16     0  02:25      1.75    0.92    1.00
  WS02004413WS02003067 CONDUIT   1375.40     0  02:25      2.10    0.59    0.78
  WS02006109WS02006110 CONDUIT   1123.33     0  02:43      2.23    2.16    1.00
  WS02006110WS02006113 CONDUIT   1123.71     0  02:43      2.24    1.02    1.00
  WS02006111WS02006112 CONDUIT   1123.79     0  02:43      2.24    0.53    1.00
  WS02006112WS02006115 CONDUIT   1375.11     0  02:25      1.75    0.81    1.00
  WS02006113WS02006111 CONDUIT   1123.61     0  02:43      2.72    1.35    1.00
  WS02006115WS02006116 CONDUIT   1376.02     0  02:25      1.75    1.77    1.00
  WS02006116WS02004401 CONDUIT   1375.19     0  02:25      1.75    1.90    1.00
  WS02006228WS02006109 CONDUIT   1287.66     0  02:20      2.56    5.63    1.00
  WS02006229WS02006228 CONDUIT   1289.07     0  02:20      2.56    4.27    1.00
  WS02006230WS02006229 CONDUIT   1015.64     0  02:20      2.64   22.60    1.00
  WS02006231WS02006230 CONDUIT    453.33     0  02:17      1.18    6.88    1.00
  WS02006232WS02006231 CONDUIT    453.45     0  02:09      1.18    0.95    1.00
  WS02006234WS02006232 CONDUIT    453.19     0  02:10      1.18    0.92    1.00
  WS02006235WS02006234 CONDUIT    416.78     0  02:25      1.08    4.40    1.00
  WS02006238WS02006235 CONDUIT    416.86     0  02:17      1.48    0.93    1.00
  WS02006239WS02006238 CONDUIT    415.44     0  02:21      1.08    1.33    1.00
  WS02006240WS02006239 CONDUIT    415.90     0  02:17      1.11    1.31    1.00
  WS02006242WS02006240 CONDUIT    415.17     0  02:21      1.08    1.65    1.00
  WS02006243WS02006242 CONDUIT    375.22     0  03:22      1.15    0.80    1.00
  WS02006245WS02006243 CONDUIT    375.14     0  03:22      1.22    1.11    1.00
  WS02006247WS02006245 CONDUIT    375.12     0  03:22      1.17    2.97    1.00
  WS02006248WS02006247 CONDUIT    375.10     0  03:22      1.17    0.82    1.00
  WS02006249WS02006248 CONDUIT    375.08     0  03:22      1.15    2.05    1.00
  WS02006251WS02006249 CONDUIT   1384.07     0  02:25      3.60    3.99    1.00
  WS02006252WS02006251 CONDUIT    408.64     0  01:36     26.42    1.50    1.00
  WS02006253WS02006251 CONDUIT   1728.68     0  02:25      4.49    5.18    1.00
  WS02006256WS02006235 CONDUIT    287.31     0  05:39      4.17    3.04    1.00
  WS02006280WS02006229 CONDUIT   2305.21     0  02:20      4.10    0.49    1.00
  WS02006284WS02006280 CONDUIT   2304.02     0  02:20      2.96    0.96    1.00
  WS02006287WS02006284 CONDUIT   2303.02     0  02:20      2.93    1.07    1.00
  WSF200WS02003060     CONDUIT   1380.86     0  02:25      2.33    0.31    0.52
  YS02001580YS02001583 CONDUIT    190.31     0  01:34      0.93    0.74    1.00
  YS02001583YS02001586 CONDUIT    213.47     0  01:34      0.94    0.32    1.00
  YS02001586YS02001590 CONDUIT    318.44     0  01:53      1.29    0.56    1.00
  YS02001590YS02001593 CONDUIT    317.94     0  01:40      1.12    2.00    1.00
  YS02001593YS02001596 CONDUIT    317.96     0  01:38      1.73    0.50    1.00
  YS02001596YS02001600 CONDUIT    317.99     0  01:47      1.21    0.62    1.00
  YS02001600YS02001601 CONDUIT    317.87     0  01:52      1.12    0.55    1.00
  YS02001601YS02001602 CONDUIT    578.61     0  01:34      2.05    2.09    1.00
  YS02001602YS02001605 CONDUIT    578.48     0  01:34      2.05   12.24    1.00
  YS02001605YS02001607 CONDUIT    578.20     0  01:34      2.04    3.17    1.00
  YS02001607YS02001610 CONDUIT    543.56     0  01:34      0.72    0.52    1.00
  YS02001610YS02001613 CONDUIT    521.87     0  01:34      0.67    0.60    1.00
  YS02001613YS02001616 CONDUIT    506.07     0  01:34      0.66    0.43    1.00
  YS02001616YS02001619 CONDUIT    479.92     0  01:34      0.68    0.83    1.00
  YS02001619YS02001622 CONDUIT    957.00     0  01:37      1.30    1.41    1.00
  YS02001622YS02001625 CONDUIT    957.54     0  01:37      1.22    0.51    1.00
  YS02001625YS02001629 CONDUIT    884.17     0  01:34      1.13    0.42    1.00
  YS02001629YS02163301 CONDUIT    856.63     0  01:35      1.09    1.05    1.00
  YS02001633YS02163601 CONDUIT   1421.41     0  01:35      1.81    1.49    1.00
  YS02001641YS02001644 CONDUIT   1414.58     0  01:35      1.80    4.57    1.00
  YS02001644YS02001647 CONDUIT   1940.54     0  01:35      2.47    1.14    1.00
  YS02001647YS02001649 CONDUIT   1949.66     0  01:35      2.48    1.03    1.00
  YS02001649YS02001757 CONDUIT   2188.72     0  01:36      2.79    1.33    1.00
  YS02001652YS02001649 CONDUIT   1044.88     0  01:38      1.33    0.52    1.00
  YS02001655YS02001652 CONDUIT   1043.27     0  01:38      1.56    0.51    1.00
  YS02001658YS02001655 CONDUIT   1042.01     0  01:38      2.06    0.44    1.00
  YS02001661YS02001658 CONDUIT   1040.86     0  01:38      2.49    0.41    1.00
  YS02001664YS02001661 CONDUIT   1039.24     0  01:38      2.56    0.33    1.00
  YS02001745YS02001748 CONDUIT    631.89     0  01:37      2.41    0.24    1.00
  YS02001748YS02001751 CONDUIT    632.57     0  01:37      1.88    0.32    1.00
  YS02001751YS02001754 CONDUIT    633.09     0  01:37      1.59    0.31    1.00
  YS02001754YS02001757 CONDUIT    637.69     0  01:37      0.81    0.26    1.00
  YS02001757CaochengTiaoxuchi CONDUIT   3434.36     0  01:37      4.37    1.49    1.00
  YS02001759YS02001757 CONDUIT   1457.82     0  01:36      1.86    1.04    1.00
  YS02001762YS02001759 CONDUIT    717.42     0  01:37      0.91    0.83    1.00
  YS02001765YS02001762 CONDUIT    718.09     0  01:37      0.91    0.67    1.00
  YS02001767YS02001765 CONDUIT    723.96     0  01:37      0.92    0.91    1.00
  YS02001770YS02001767 CONDUIT    728.93     0  01:37      0.93    2.89    1.00
  YS02001774YS02001770 CONDUIT    641.87     0  01:36      0.82    0.41    1.00
  YS02001779YS02001774 CONDUIT    623.76     0  01:36      0.82    0.31    1.00
  YS02001783YS02001784 CONDUIT   1166.86     0  01:36      2.32    1.61    1.00
  YS02001784YS02001785 CONDUIT   1168.13     0  01:37      2.32    2.72    1.00
  YS02001786YS02001788 CONDUIT   1168.41     0  01:37      2.49    2.25    0.90
  YS02001788YS02001790 CONDUIT   1196.91     0  01:36      2.74    0.88    0.85
  YS02001790YS02001791 CONDUIT   1303.02     0  01:37      3.45    1.42    0.71
  YS02001791YS02001793 CONDUIT   1254.71     0  01:38      6.75    0.54    0.45
  YS02001793JiankangQianchi CONDUIT   1294.25     0  01:43      2.57    0.10    0.65
  YS02001882YS02001884 CONDUIT     90.14     0  01:35      0.17    0.10    1.00
  YS02001884YS02001887 CONDUIT    159.30     0  01:34      0.20    0.21    1.00
  YS02001887YS02001890 CONDUIT    847.09     0  01:38      1.08    1.45    1.00
  YS02001890YS02001895 CONDUIT    649.20     0  01:35      0.83    0.30    1.00
  YS02001895YS02001898 CONDUIT    647.02     0  01:35      0.82    1.12    1.00
  YS02001898YS02001901 CONDUIT    643.05     0  01:35      0.82    0.41    1.00
  YS02001901YS02001904 CONDUIT    638.87     0  01:35      0.81    0.99    1.00
  YS02001904YS02001907 CONDUIT    636.20     0  01:35      0.81    0.22    1.00
  YS02001907YS02006553 CONDUIT    788.07     0  01:57      0.88    0.93    1.00
  YS02001910YS02001907 CONDUIT   1357.67     0  01:39      1.73    0.77    1.00
  YS02001915YS02001910 CONDUIT   1358.10     0  01:39      1.73    0.67    1.00
  YS02001918YS02001915 CONDUIT    829.34     0  01:35      1.06    0.46    1.00
  YS02001920YS02001918 CONDUIT    764.22     0  01:36      0.97    0.74    1.00
  YS02001923YS02001920 CONDUIT    793.16     0  01:36      1.07    0.36    1.00
  YS02001926YS02001923 CONDUIT   1056.89     0  01:36      1.47    1.51    1.00
  YS02001929YS02001926 CONDUIT    819.58     0  01:36      1.28    0.39    1.00
  YS02006553YS02006556 CONDUIT    788.21     0  01:57      1.00    0.67    1.00
  YS02006556YS02006558 CONDUIT    789.34     0  01:57      1.01    0.62    1.00
  YS02006558YS02006561 CONDUIT   1199.52     0  01:35      4.24    2.65    1.00
  YS02006561YS02001783 CONDUIT   1167.42     0  01:36      2.32    0.60    1.00
  YS02163301YS02001633 CONDUIT    855.75     0  01:35      1.09    0.80    1.00
  YS02163601YS02164001 CONDUIT   1419.89     0  01:35      1.81    1.26    1.00
  YS02164001YS02001641 CONDUIT   1416.17     0  01:35      1.80    1.93    1.00
  YSB1154YSB6556       CONDUIT    590.48     0  02:25      1.53    1.06    1.00
  YSB1171HS02004479    CONDUIT    373.63     0  02:13      0.74    0.25    1.00
  YSB1174YSB1171       CONDUIT    482.32     0  02:25      1.25    0.74    1.00
  YSB6556YSB1171       CONDUIT    591.38     0  02:25      1.54    0.61    1.00
  CC-R1                PUMP       683.00     0  00:00              1.00
  CC-R2                PUMP       683.00     0  00:00              1.00
  CC-S1                PUMP       200.00     0  00:00              1.00
  CC-S2                PUMP       200.00     0  00:00              1.00
  JK-R1                PUMP      1000.00     0  00:00              1.00
  JK-R2                PUMP      1000.00     0  00:00              1.00
  JK-S                 PUMP       300.00     0  00:00              1.00
  XR-1                 PUMP        95.00     0  00:00              1.00
  XR-2                 PUMP        95.00     0  00:00              1.00
  XR-3                 PUMP        95.00     0  00:00              1.00
  XR-4                 PUMP        95.00     0  00:00              1.00
  
  
  ***************************
  Flow Classification Summary
  ***************************
  
  -------------------------------------------------------------------------------------
                      Adjusted    ---------- Fraction of Time in Flow Class ---------- 
                       /Actual         Up    Down  Sub   Sup   Up    Down  Norm  Inlet 
  Conduit               Length    Dry  Dry   Dry   Crit  Crit  Crit  Crit  Ltd   Ctrl  
  -------------------------------------------------------------------------------------
  1                       1.00   0.00  0.00  0.00  0.00  1.00  0.00  0.00  0.31  0.00
  HS02004478WS02006287    1.00   0.06  0.00  0.00  0.60  0.34  0.00  0.00  0.58  0.00
  HS02004479HS02004480    1.00   0.02  0.00  0.00  0.98  0.00  0.00  0.00  0.11  0.00
  HS02004480HS02004478    1.00   0.05  0.00  0.00  0.54  0.00  0.00  0.41  0.00  0.00
  HS02004770HS02004777    1.00   0.00  0.05  0.00  0.95  0.00  0.00  0.00  0.02  0.00
  HS02004777HS02004785    1.00   0.00  0.00  0.00  1.00  0.00  0.00  0.00  0.11  0.00
  HS02004785HS02004788    1.00   0.00  0.00  0.00  1.00  0.00  0.00  0.00  0.00  0.00
  HS02004788HS02004792    1.00   0.00  0.00  0.00  1.00  0.00  0.00  0.00  0.87  0.00
  HS02004792HS02004799    1.00   0.00  0.00  0.00  1.00  0.00  0.00  0.00  0.82  0.00
  HS02004799HS02004480    1.00   0.00  0.01  0.00  0.94  0.00  0.04  0.00  0.00  0.00
  HS02004802HS02004478    1.00   0.05  0.00  0.00  0.95  0.00  0.00  0.00  0.02  0.00
  HS02004807HS02004802    1.00   0.05  0.00  0.00  0.94  0.00  0.00  0.01  0.00  0.00
  HS02004817HS02004807    1.00   0.00  0.05  0.00  0.95  0.00  0.00  0.00  0.01  0.00
  HS02004817HS02004824    1.00   0.00  0.00  0.00  1.00  0.00  0.00  0.00  0.78  0.00
  HS02004824HS02004830    1.00   0.00  0.00  0.00  1.00  0.00  0.00  0.00  0.01  0.00
  HS02004830HS02004837    1.00   0.00  0.00  0.00  1.00  0.00  0.00  0.00  0.84  0.00
  HS02004837HS02004842    1.00   0.00  0.00  0.00  1.00  0.00  0.00  0.00  0.11  0.00
  HS02004842HS02004848    1.00   0.00  0.05  0.00  0.95  0.00  0.00  0.00  0.54  0.00
  HS02004848HS02004852    1.00   0.05  0.00  0.00  0.95  0.00  0.00  0.00  0.68  0.00
  HS02004852HS02004856    1.00   0.05  0.00  0.00  0.95  0.00  0.00  0.00  0.65  0.00
  HS02004856HS02004862    1.00   0.00  0.06  0.00  0.94  0.00  0.00  0.00  0.72  0.00
  HS02004862HS02004870    1.00   0.00  0.00  0.00  1.00  0.00  0.00  0.00  0.02  0.00
  HS02004870HS02004876    1.00   0.00  0.00  0.00  0.99  0.00  0.00  0.00  0.83  0.00
  HS02004876HS02004881    1.00   0.01  0.00  0.00  0.69  0.30  0.00  0.00  0.00  0.00
  HS02004881HS02006253    1.00   0.02  0.00  0.00  0.45  0.02  0.00  0.50  0.15  0.00
  HS02004901HS02004770    1.00   0.05  0.00  0.00  0.95  0.00  0.00  0.00  0.00  0.00
  WS02001211WS02001212    1.00   0.00  0.01  0.00  0.99  0.00  0.00  0.00  0.00  0.00
  WS02001212WS02001213    1.00   0.01  0.00  0.00  0.44  0.00  0.54  0.00  0.00  0.00
  WS02001213WS02003059    1.00   0.00  0.00  0.00  0.99  0.00  0.00  0.00  0.00  0.00
  WS02003059WS02003060    1.00   0.00  0.00  0.00  1.00  0.00  0.00  0.00  0.03  0.00
  WS02003060WS02003069    1.00   0.00  0.00  0.00  0.99  0.01  0.00  0.00  0.54  0.00
  WS02003066WSF200        1.00   0.17  0.00  0.00  0.00  0.83  0.00  0.00  0.56  0.00
  WS02003067WS02003066    1.00   0.16  0.01  0.00  0.83  0.00  0.00  0.00  0.00  0.00
  WS02003069WS02003072    1.00   0.00  0.00  0.00  1.00  0.00  0.00  0.00  0.69  0.00
  WS02003072WS02003073    1.00   0.00  0.00  0.00  0.00  0.00  0.00  1.00  0.00  0.00
  WS02004138WS02004139    1.00   0.00  0.00  0.00  0.99  0.00  0.00  0.01  0.98  0.00
  WS02004139WS02001211    1.00   0.00  0.00  0.00  1.00  0.00  0.00  0.00  0.01  0.00
  WS02004401WS02004402    1.00   0.04  0.00  0.00  0.96  0.00  0.00  0.00  0.04  0.00
  WS02004402WS02004403    1.00   0.04  0.00  0.00  0.96  0.00  0.00  0.00  0.00  0.00
  WS02004403WS02004404    1.00   0.00  0.04  0.00  0.96  0.00  0.00  0.00  0.04  0.00
  WS02004404WS02004405    1.00   0.00  0.00  0.00  1.00  0.00  0.00  0.00  0.00  0.00
  WS02004405WS02004406    1.00   0.00  0.00  0.00  1.00  0.00  0.00  0.00  0.04  0.00
  WS02004406WS02004407    1.00   0.00  0.11  0.00  0.89  0.00  0.00  0.00  0.00  0.00
  WS02004407WS02004409    1.00   0.11  0.00  0.00  0.84  0.05  0.00  0.00  0.63  0.00
  WS02004409WS02004410    1.00   0.11  0.00  0.00  0.89  0.00  0.00  0.00  0.00  0.00
  WS02004410WS02004411    1.00   0.11  0.00  0.00  0.88  0.00  0.00  0.00  0.00  0.00
  WS02004411WS02004412    1.00   0.12  0.00  0.00  0.88  0.00  0.00  0.00  0.00  0.00
[...]
  WS02006284WS02006280    1.00   0.06  0.00  0.00  0.22  0.02  0.00  0.70  0.00  0.00
  WS02006287WS02006284    1.00   0.04  0.02  0.00  0.51  0.43  0.00  0.00  0.62  0.00
  WSF200WS02003060        1.00   0.00  0.17  0.00  0.41  0.42  0.00  0.00  0.53  0.00
  YS02001580YS02001583    1.00   0.17  0.51  0.00  0.31  0.00  0.00  0.00  0.70  0.00
  YS02001583YS02001586    1.00   0.29  0.29  0.00  0.42  0.00  0.01  0.00  0.70  0.00
  YS02001586YS02001590    1.00   0.05  0.00  0.00  0.63  0.03  0.00  0.29  0.31  0.00
  YS02001590YS02001593    1.00   0.05  0.00  0.00  0.21  0.00  0.73  0.00  0.00  0.00
  YS02001593YS02001596    1.00   0.05  0.00  0.00  0.25  0.01  0.00  0.68  0.02  0.00
  YS02001596YS02001600    1.00   0.05  0.00  0.00  0.38  0.02  0.00  0.55  0.05  0.00
  YS02001600YS02001601    1.00   0.05  0.00  0.00  0.95  0.00  0.00  0.00  0.61  0.00
  YS02001601YS02001602    1.00   0.05  0.00  0.00  0.95  0.00  0.00  0.00  0.00  0.00
  YS02001602YS02001605    1.00   0.05  0.00  0.00  0.95  0.00  0.00  0.00  0.00  0.00
  YS02001605YS02001607    1.00   0.05  0.00  0.00  0.95  0.00  0.00  0.00  0.00  0.00
  YS02001607YS02001610    1.00   0.05  0.00  0.00  0.95  0.00  0.00  0.00  0.01  0.00
  YS02001610YS02001613    1.00   0.05  0.00  0.00  0.95  0.00  0.00  0.00  0.00  0.00
  YS02001613YS02001616    1.00   0.05  0.00  0.00  0.95  0.00  0.00  0.00  0.00  0.00
  YS02001616YS02001619    1.00   0.05  0.00  0.00  0.95  0.00  0.00  0.00  0.00  0.00
  YS02001619YS02001622    1.00   0.05  0.00  0.00  0.95  0.00  0.00  0.00  0.35  0.00
  YS02001622YS02001625    1.00   0.05  0.00  0.00  0.95  0.00  0.00  0.00  0.03  0.00
  YS02001625YS02001629    1.00   0.05  0.02  0.00  0.28  0.00  0.65  0.00  0.00  0.00
  YS02001629YS02163301    1.00   0.06  0.00  0.00  0.94  0.00  0.00  0.00  0.00  0.00
  YS02001633YS02163601    1.00   0.00  0.00  0.00  1.00  0.00  0.00  0.00  0.14  0.00
  YS02001641YS02001644    1.00   0.00  0.00  0.00  1.00  0.00  0.00  0.00  0.00  0.00
  YS02001644YS02001647    1.00   0.00  0.07  0.00  0.93  0.00  0.00  0.00  0.00  0.00
  YS02001647YS02001649    1.00   0.00  0.06  0.00  0.63  0.30  0.00  0.00  0.58  0.00
  YS02001649YS02001757    1.00   0.00  0.00  0.00  0.68  0.32  0.00  0.00  0.53  0.00
  YS02001652YS02001649    1.00   0.00  0.00  0.00  0.98  0.02  0.00  0.00  0.74  0.00
  YS02001655YS02001652    1.00   0.00  0.00  0.00  0.29  0.04  0.00  0.67  0.05  0.00
  YS02001658YS02001655    1.00   0.00  0.06  0.00  0.64  0.31  0.00  0.00  0.68  0.00
  YS02001661YS02001658    1.00   0.06  0.00  0.00  0.49  0.45  0.00  0.00  0.72  0.00
  YS02001664YS02001661    1.00   0.05  0.00  0.00  0.75  0.20  0.00  0.00  0.85  0.00
  YS02001745YS02001748    1.00   0.00  0.00  0.00  0.19  0.01  0.00  0.80  0.05  0.00
  YS02001748YS02001751    1.00   0.00  0.00  0.00  0.75  0.25  0.00  0.00  0.77  0.00
  YS02001751YS02001754    1.00   0.00  0.00  0.00  0.26  0.01  0.00  0.73  0.02  0.00
  YS02001754YS02001757    1.00   0.00  0.00  0.00  1.00  0.00  0.00  0.00  0.82  0.00
  YS02001757CaochengTiaoxuchi    1.00   0.00  0.00  0.00  1.00  0.00  0.00  0.00  0.69  0.00
  YS02001759YS02001757    1.00   0.00  0.00  0.00  1.00  0.00  0.00  0.00  0.69  0.00
  YS02001762YS02001759    1.00   0.00  0.00  0.00  1.00  0.00  0.00  0.00  0.03  0.00
  YS02001765YS02001762    1.00   0.00  0.00  0.00  1.00  0.00  0.00  0.00  0.73  0.00
  YS02001767YS02001765    1.00   0.00  0.00  0.00  1.00  0.00  0.00  0.00  0.00  0.00
  YS02001770YS02001767    1.00   0.00  0.00  0.00  1.00  0.00  0.00  0.00  0.00  0.00
  YS02001774YS02001770    1.00   0.00  0.05  0.00  0.78  0.00  0.17  0.00  0.02  0.00
  YS02001779YS02001774    1.00   0.00  0.00  0.00  1.00  0.00  0.00  0.00  0.78  0.00
  YS02001783YS02001784    1.00   0.00  0.07  0.00  0.93  0.00  0.00  0.00  0.57  0.00
  YS02001784YS02001785    1.00   0.00  0.00  0.00  1.00  0.00  0.00  0.00  0.16  0.00
  YS02001786YS02001788    1.00   0.00  0.00  0.00  0.63  0.37  0.00  0.00  0.00  0.00
  YS02001788YS02001790    1.00   0.00  0.00  0.00  0.14  0.86  0.00  0.00  0.80  0.00
  YS02001790YS02001791    1.00   0.00  0.00  0.00  0.01  0.99  0.00  0.00  0.17  0.00
  YS02001791YS02001793    1.00   0.00  0.00  0.00  0.00  1.00  0.00  0.00  0.01  0.00
  YS02001793JiankangQianchi    1.00   0.00  0.00  0.00  0.93  0.07  0.00  0.00  0.97  0.00
  YS02001882YS02001884    1.00   0.06  0.00  0.00  0.94  0.00  0.00  0.00  0.00  0.00
  YS02001884YS02001887    1.00   0.03  0.02  0.00  0.95  0.00  0.00  0.00  0.00  0.00
  YS02001887YS02001890    1.00   0.00  0.00  0.00  0.99  0.00  0.01  0.00  0.00  0.00
  YS02001890YS02001895    1.00   0.00  0.06  0.00  0.94  0.00  0.00  0.00  0.00  0.00
  YS02001895YS02001898    1.00   0.06  0.00  0.00  0.92  0.00  0.01  0.00  0.00  0.00
  YS02001898YS02001901    1.00   0.06  0.00  0.00  0.94  0.00  0.00  0.00  0.01  0.00
  YS02001901YS02001904    1.00   0.06  0.00  0.00  0.94  0.00  0.00  0.00  0.00  0.00
  YS02001904YS02001907    1.00   0.00  0.06  0.00  0.94  0.00  0.00  0.00  0.00  0.00
  YS02001907YS02006553    1.00   0.00  0.01  0.00  0.99  0.00  0.00  0.00  0.00  0.00
  YS02001910YS02001907    1.00   0.00  0.00  0.00  0.99  0.00  0.00  0.01  0.12  0.00
  YS02001915YS02001910    1.00   0.00  0.00  0.00  0.99  0.01  0.00  0.00  0.14  0.00
  YS02001918YS02001915    1.00   0.00  0.00  0.00  0.99  0.01  0.00  0.00  0.75  0.00
  YS02001920YS02001918    1.00   0.00  0.00  0.00  1.00  0.00  0.00  0.00  0.00  0.00
  YS02001923YS02001920    1.00   0.00  0.00  0.00  1.00  0.00  0.00  0.00  0.92  0.00
  YS02001926YS02001923    1.00   0.00  0.03  0.00  0.10  0.00  0.86  0.00  0.00  0.00
  YS02001929YS02001926    1.00   0.00  0.05  0.00  0.95  0.00  0.00  0.00  0.82  0.00
  YS02006553YS02006556    1.00   0.01  0.00  0.00  0.99  0.00  0.00  0.00  0.03  0.00
  YS02006556YS02006558    1.00   0.00  0.00  0.00  1.00  0.00  0.00  0.00  0.00  0.00
  YS02006558YS02006561    1.00   0.07  0.00  0.00  0.10  0.83  0.00  0.00  0.18  0.00
  YS02006561YS02001783    1.00   0.07  0.00  0.00  0.14  0.79  0.00  0.00  0.70  0.00
  YS02163301YS02001633    1.00   0.00  0.06  0.00  0.94  0.00  0.00  0.00  0.00  0.00
  YS02163601YS02164001    1.00   0.00  0.03  0.00  0.97  0.00  0.00  0.00  0.00  0.00
  YS02164001YS02001641    1.00   0.01  0.03  0.00  0.97  0.00  0.00  0.00  0.05  0.00
  YSB1154YSB6556          1.00   0.05  0.00  0.00  0.95  0.00  0.00  0.00  0.01  0.00
  YSB1171HS02004479       1.00   0.02  0.00  0.00  0.98  0.00  0.00  0.01  0.09  0.00
  YSB1174YSB1171          1.00   0.02  0.02  0.00  0.96  0.00  0.00  0.00  0.00  0.00
  YSB6556YSB1171          1.00   0.02  0.03  0.00  0.95  0.00  0.00  0.00  0.00  0.00
  
  
  *************************
  Conduit Surcharge Summary
  *************************
  
  ----------------------------------------------------------------------------
                                                           Hours        Hours 
                         --------- Hours Full --------   Above Full   Capacity
  Conduit                Both Ends  Upstream  Dnstream   Normal Flow   Limited
  ----------------------------------------------------------------------------
  HS02004478WS02006287        0.68      0.68      0.90      0.01         0.01
  HS02004479HS02004480        0.89      0.89      0.92      0.01         0.01
  HS02004480HS02004478        0.79      0.88      0.79      1.93         0.79
  HS02004770HS02004777        0.77      0.77      0.78      0.14         0.09
  HS02004777HS02004785        0.72      0.72      0.78      0.01         0.01
  HS02004785HS02004788        0.71      0.72      0.71      1.62         0.60
  HS02004788HS02004792        0.71      0.71      0.85      0.01         0.01
  HS02004792HS02004799        0.85      0.85      1.02      0.01         0.01
  HS02004799HS02004480        0.88      0.88      1.02      1.15         0.01
  HS02004802HS02004478        0.82      0.82      0.91      0.21         0.01
  HS02004807HS02004802        0.86      0.86      0.90      0.38         0.39
  HS02004817HS02004807        0.86      0.86      1.50      0.01         0.01
  HS02004817HS02004824        0.70      0.70      1.50      0.01         0.01
  HS02004824HS02004830        0.68      0.68      0.70      0.01         0.01
  HS02004830HS02004837        0.61      0.61      0.68      0.01         0.01
  HS02004837HS02004842        0.61      0.61      0.78      0.01         0.01
  HS02004842HS02004848        0.59      0.59      0.78      0.01         0.01
  HS02004848HS02004852        0.59      0.59      0.61      0.01         0.01
  HS02004852HS02004856        0.61      0.61      0.64      0.01         0.01
  HS02004856HS02004862        0.60      0.60      0.64      0.01         0.01
  HS02004862HS02004870        0.64      0.64      0.66      0.26         0.28
  HS02004870HS02004876        0.66      0.66      0.74      0.01         0.01
  HS02004876HS02004881        0.72      0.74      0.72      1.72         0.71
  HS02004881HS02006253        0.72      0.72      1.81      0.01         0.01
  HS02004901HS02004770        0.77      0.77      0.77      0.13         0.01
  WS02003072WS02003073        0.01      0.01      0.01      2.25         0.01
  WS02004401WS02004402        1.80      1.80      1.83      1.67         1.67
  WS02004402WS02004403        1.83      1.83      1.84      1.79         1.79
  WS02004403WS02004404        1.84      1.84      1.90      0.01         0.04
  WS02004404WS02004405        1.88      1.90      1.88      2.92         1.88
  WS02004405WS02004406        1.87      1.88      1.87      1.98         1.87
  WS02004406WS02004407        0.08      0.08      1.87      0.01         0.01
  WS02004407WS02004409        0.08      0.08      1.40      0.01         0.01
  WS02004409WS02004410        1.30      1.40      1.30      1.70         1.30
  WS02004410WS02004411        1.20      1.30      1.20      1.75         1.20
  WS02004411WS02004412        1.07      1.20      1.07      1.78         1.07
  WS02004412WS02004413        1.07      1.07      1.61      0.01         0.01
  WS02004413WS02003067        0.01      0.01      1.61      0.01         0.01
  WS02006109WS02006110        1.97      1.97      2.11      1.97         0.01
  WS02006110WS02006113        1.60      1.60      2.10      0.33         0.01
  WS02006111WS02006112        1.58      1.58      2.19      0.01         0.01
  WS02006112WS02006115        1.70      1.70      1.99      0.01         0.01
  WS02006113WS02006111        1.59      1.60      1.59      1.68         1.59
  WS02006115WS02006116        1.72      1.72      1.72      1.70         1.69
  WS02006116WS02004401        1.79      1.79      1.80      1.76         1.75
  WS02006228WS02006109        2.09      2.11      2.09      2.31         2.09
  WS02006229WS02006228        2.08      2.09      2.08      2.19         2.08
  WS02006230WS02006229        2.12      2.13      2.12      2.67         0.76
  WS02006231WS02006230        1.89      1.89      1.92      2.39         1.32
  WS02006232WS02006231        1.91      1.91      1.98      0.01         0.15
  WS02006234WS02006232        1.93      1.93      1.98      0.01         0.01
  WS02006235WS02006234        1.91      1.92      1.93      2.19         1.30
  WS02006238WS02006235        1.94      1.94      1.95      0.01         0.51
  WS02006239WS02006238        1.93      1.93      1.94      1.29         0.14
  WS02006240WS02006239        1.90      1.90      1.91      1.28         0.14
  WS02006242WS02006240        1.89      1.89      1.92      1.44         1.22
  WS02006243WS02006242        1.87      1.87      1.91      0.01         0.01
  WS02006245WS02006243        1.86      1.86      1.87      0.11         0.13
  WS02006247WS02006245        1.85      1.87      1.85      1.85         0.34
  WS02006248WS02006247        1.85      1.85      1.86      0.01         0.01
  WS02006249WS02006248        1.84      1.84      1.84      0.34         0.01
  WS02006251WS02006249        1.84      1.84      1.84      1.80         1.80
  WS02006252WS02006251        1.82      1.82      1.83      1.40         0.14
  WS02006253WS02006251        1.84      1.84      1.84      1.04         0.01
  WS02006256WS02006235        2.41      2.42      5.21      0.81         0.01
  WS02006280WS02006229        1.07      1.07      1.25      0.01         0.01
  WS02006284WS02006280        0.93      0.93      1.04      0.01         0.01
  WS02006287WS02006284        0.79      0.79      0.94      0.43         0.44
  YS02001580YS02001583        0.65      0.65      0.71      0.01         0.01
  YS02001583YS02001586        0.66      0.66      0.81      0.01         0.01
  YS02001586YS02001590        0.81      0.81      0.88      0.01         0.01
  YS02001590YS02001593        0.88      0.88      0.90      0.95         0.01
  YS02001593YS02001596        0.89      0.89      0.99      0.01         0.01
  YS02001596YS02001600        1.03      1.03      1.14      0.01         0.01
  YS02001600YS02001601        1.20      1.20      1.56      0.01         0.01
  YS02001601YS02001602        1.40      1.40      1.60      1.13         0.01
  YS02001602YS02001605        1.33      1.33      1.40      2.17         0.01
  YS02001605YS02001607        1.29      1.33      1.29      1.50         1.29
  YS02001607YS02001610        0.87      0.87      0.90      0.01         0.01
  YS02001610YS02001613        0.87      0.87      0.90      0.01         0.01
  YS02001613YS02001616        0.83      0.83      0.87      0.01         0.01
  YS02001616YS02001619        0.81      0.81      0.83      0.01         0.01
  YS02001619YS02001622        0.81      0.81      0.81      0.86         0.74
  YS02001622YS02001625        0.81      0.81      0.99      0.01         0.01
  YS02001625YS02001629        0.76      0.76      0.99      0.01         0.01
  YS02001629YS02163301        1.00      1.00      1.01      0.01         0.11
  YS02001633YS02163601        1.03      1.03      1.06      0.31         0.28
  YS02001641YS02001644        0.97      0.99      0.97      1.62         0.95
  YS02001644YS02001647        0.77      0.77      0.97      0.03         0.01
  YS02001647YS02001649        0.77      0.77      0.91      0.01         0.01
  YS02001649YS02001757        0.91      0.91      0.99      0.04         0.03
  YS02001652YS02001649        0.73      0.73      0.91      0.01         0.01
  YS02001655YS02001652        0.50      0.50      0.70      0.01         0.01
  YS02001658YS02001655        0.23      0.23      0.50      0.01         0.01
  YS02001661YS02001658        0.02      0.02      0.23      0.01         0.01
  YS02001664YS02001661        0.01      0.01      0.08      0.01         0.01
  YS02001745YS02001748        0.01      0.01      0.17      0.01         0.01
  YS02001748YS02001751        0.21      0.21      0.33      0.01         0.01
  YS02001751YS02001754        0.33      0.33      0.59      0.01         0.01
  YS02001754YS02001757        0.64      0.64      0.99      0.01         0.01
  YS02001757CaochengTiaoxuchi        0.99      0.99      1.50      0.35         0.33
  YS02001759YS02001757        0.89      0.89      0.99      0.01         0.01
  YS02001762YS02001759        0.86      0.86      0.89      0.01         0.02
  YS02001765YS02001762        0.80      0.80      0.86      0.01         0.01
  YS02001767YS02001765        0.76      0.76      0.80      0.01         0.02
  YS02001770YS02001767        0.76      0.76      0.76      0.53         0.50
  YS02001774YS02001770        0.73      0.73      0.83      0.01         0.01
  YS02001779YS02001774        0.58      0.58      0.83      0.01         0.01
  YS02001783YS02001784        0.51      0.53      0.51      0.66         0.51
  YS02001784YS02001785        0.41      0.51      0.41      0.90         0.41
  YS02001786YS02001788        0.01      0.41      0.01      0.76         0.01
  YS02001790YS02001791        0.01      0.01      0.01      0.50         0.01
  YS02001793JiankangQianchi        0.01      0.01      7.97      0.01         0.01
  YS02001882YS02001884        0.48      0.48      0.49      0.01         0.01
  YS02001884YS02001887        0.51      0.51      0.52      0.01         0.01
  YS02001887YS02001890        0.54      0.54      0.54      0.13         0.01
  YS02001890YS02001895        0.47      0.47      0.56      0.01         0.01
  YS02001895YS02001898        0.46      0.46      0.47      0.02         0.01
  YS02001898YS02001901        0.47      0.47      0.51      0.01         0.01
  YS02001901YS02001904        0.50      0.50      0.51      0.01         0.01
  YS02001904YS02001907        0.50      0.50      0.73      0.01         0.01
  YS02001907YS02006553        0.91      0.91      0.98      0.01         0.01
  YS02001910YS02001907        0.56      0.56      0.72      0.01         0.01
  YS02001915YS02001910        0.48      0.48      0.56      0.01         0.01
  YS02001918YS02001915        0.40      0.40      0.48      0.01         0.01
  YS02001920YS02001918        0.40      0.40      0.41      0.01         0.01
  YS02001923YS02001920        0.35      0.35      0.41      0.01         0.01
  YS02001926YS02001923        0.08      0.08      0.11      0.01         0.01
  YS02001929YS02001926        0.01      0.01      0.11      0.01         0.01
  YS02006553YS02006556        0.64      0.64      0.73      0.01         0.01
  YS02006556YS02006558        0.68      0.68      0.75      0.01         0.01
  YS02006558YS02006561        0.43      0.63      0.43      0.85         0.43
  YS02006561YS02001783        0.36      0.36      0.53      0.01         0.01
  YS02163301YS02001633        1.01      1.01      1.04      0.01         0.01
  YS02163601YS02164001        0.99      0.99      1.06      0.03         0.01
  YS02164001YS02001641        0.99      0.99      0.99      0.72         0.67
  YSB1154YSB6556              0.98      0.98      1.18      0.04         0.01
  YSB1171HS02004479           0.83      0.83      1.19      0.01         0.01
  YSB1174YSB1171              1.07      1.07      1.43      0.01         0.01
  YSB6556YSB1171              0.98      0.98      1.58      0.01         0.01
  
  
  ***************
  Pumping Summary
  ***************
  
  ---------------------------------------------------------------------------------------------------------
                                                  Min       Avg       Max     Total     Power    % Time Off
                        Percent   Number of      Flow      Flow      Flow    Volume     Usage    Pump Curve
  Pump                 Utilized   Start-Ups       LPS       LPS       LPS  10^6 ltr     Kw-hr    Low   High
  ---------------------------------------------------------------------------------------------------------
  CC-R1                   21.72          21      0.00    683.00    683.00     4.273     80.07    0.0   16.9
  CC-R2                   20.78          21      0.00    683.00    683.00     4.088     76.65    0.0   17.7
  CC-S1                   25.27          23      0.00    200.00    200.00     1.456      9.77    0.0    0.0
  CC-S2                   22.44          21      0.00    200.00    200.00     1.292      8.76    0.0    0.0
  JK-R1                    7.57          68      0.00   1000.00   1000.00     2.179     22.34    0.0    0.0
  JK-R2                    0.07           1      0.00   1000.00   1000.00     0.021      0.19    0.0    0.0
  JK-S                    21.48           8      0.00    300.00    300.00     1.856     27.46    0.0    0.0
  XR-1                    97.90           2      0.00     95.00     95.00     2.678      9.62    0.0    0.0
  XR-2                    93.97           2      0.00     95.00     95.00     2.571      8.79    0.0    0.0
  XR-3                     0.00           1      0.00     95.00     95.00     0.000      0.00    0.0    0.0
  XR-4                     0.00           1      0.00     95.00     95.00     0.000      0.00    0.0    0.0
  

  Analysis begun on:  Wed Aug  2 16:05:28 2023
  Analysis ended on:  Wed Aug  2 16:06:59 2023
  Total elapsed time: 00:01:31