
  OWA STORM WATER MANAGEMENT MODEL - VERSION v5.1.14 (OWA 2022-07-31)
  --------------------------------------------------------------

  WARNING 04: minimum elevation drop used for Conduit WS02004404WS02004405
  WARNING 03: negative offset ignored for Link YS02001904YS02001907
  
  *********************************************************
  NOTE: The summary statistics displayed in this report are
  based on results found at every computational time step,  
  not just on results from each reporting time step.
  *********************************************************
  
  ****************
  Analysis Options
  ****************
  Flow Units ............... LPS
  Process Models:
    Rainfall/Runoff ........ YES
    RDII ................... NO
    Snowmelt ............... NO
    Groundwater ............ NO
    Flow Routing ........... YES
    Ponding Allowed ........ NO
    Water Quality .......... NO
  Infiltration Method ...... HORTON
  Flow Routing Method ...... DYNWAVE
  Surcharge Method ......... EXTRAN
  Starting Date ............ 08/28/2015 08:00:00
  Ending Date .............. 08/28/2015 16:00:00
  Antecedent Dry Days ...... 8.0
  Report Time Step ......... 00:01:00
  Wet Time Step ............ 00:01:00
  Dry Time Step ............ 00:01:00
  Routing Time Step ........ 30.00 sec
  Variable Time Step ....... YES
  Maximum Trials ........... 8
  Number of Threads ........ 4
  Head Tolerance ........... 0.001500 m
  
  
  **************************        Volume         Depth
  Runoff Quantity Continuity     hectare-m            mm
  **************************     ---------       -------
  Initial LID Storage ......         0.072         1.184
  Total Precipitation ......        10.113       166.940
  Evaporation Loss .........         0.000         0.000
  Infiltration Loss ........         0.213         3.514
  Surface Runoff ...........         8.662       142.995
  Final Storage ............         1.311        21.649
  Continuity Error (%) .....        -0.020
  
  
  **************************        Volume        Volume
  Flow Routing Continuity        hectare-m      10^6 ltr
  **************************     ---------     ---------
  Dry Weather Inflow .......         0.630         6.296
  Wet Weather Inflow .......         8.661        86.606
  Groundwater Inflow .......         0.000         0.000
  RDII Inflow ..............         0.000         0.000
  External Inflow ..........         0.105         1.045
  External Outflow .........         3.235        32.351
  Flooding Loss ............         6.116        61.163
  Evaporation Loss .........         0.000         0.000
  Exfiltration Loss ........         0.000         0.000
  Initial Stored Volume ....         0.303         3.031
  Final Stored Volume ......         0.352         3.518
  Continuity Error (%) .....        -0.055
  
  
  *************************
  Highest Continuity Errors
  *************************
  Node YS02001884 (4.74%)
  Node YS02001583 (-2.40%)
  Node HS02004842 (1.68%)
  
  
  ***************************
  Time-Step Critical Elements
  ***************************
  Link WS02006280WS02006229 (35.24%)
  Link WS02006252WS02006251 (15.95%)
  Link YS02001791YS02001793 (14.70%)
  Link WS02004404WS02004405 (10.41%)
  Link WS02006238WS02006235 (5.23%)
  
  
  ********************************
  Highest Flow Instability Indexes
  ********************************
  Link WS02006238WS02006235 (39)
  Link WS02006252WS02006251 (36)
  Link YS02001602YS02001605 (33)
  Link YS02001605YS02001607 (31)
  Link WS02004404WS02004405 (31)
  
  
  *************************
  Routing Time Step Summary
  *************************
  Minimum Time Step           :     0.00 sec
  Average Time Step           :     2.55 sec
  Maximum Time Step           :    16.89 sec
  Percent in Steady State     :     0.00
  Average Iterations per Step :     4.26
  Percent Not Converging      :    24.03
  
  
  ***************************
  Subcatchment Runoff Summary
  ***************************
  
  ------------------------------------------------------------------------------------------------------------------------------
                            Total      Total      Total      Total     Imperv       Perv      Total       Total     Peak  Runoff
                           Precip      Runon       Evap      Infil     Runoff     Runoff     Runoff      Runoff   Runoff   Coeff
  Subcatchment                 mm         mm         mm         mm         mm         mm         mm    10^6 ltr      LPS
  ------------------------------------------------------------------------------------------------------------------------------
  sub0                      80.76       0.00       0.00       1.02      73.87       4.63      78.50        0.06    44.80   0.972
  sub1                      80.76       0.00       0.00       1.54      63.31       6.42      69.74        0.46   274.45   0.864
  sub10                     80.76       0.00       0.00       0.98      59.33       4.27      63.60        0.70   433.26   0.788
  sub11                     80.76       0.00       0.00       0.90      55.14       3.98      59.12        0.69   450.24   0.732
  sub12                     80.76       0.00       0.00       1.58      56.05       6.94      63.00        0.55   383.73   0.780
  sub14                     80.76       0.00       0.00       0.98      52.22       4.28      56.50        0.54   346.00   0.700
  sub15                     80.76       0.00       0.00       4.39      46.95      16.08      63.03        1.08   601.33   0.781
  sub16                     80.76       0.00       0.00       4.68      45.79      18.26      64.05        0.67   406.33   0.793
  sub17                     80.76       0.00       0.00       5.00      50.54      19.19      69.73        0.60   354.15   0.863
  sub2                      80.76       0.00       0.00       6.88      46.29      20.80      67.08        0.63   283.46   0.831
  sub22                     80.76       0.00       0.00       7.74      43.83      25.90      69.72        4.40  2187.10   0.863
  sub23                     80.76       0.00       0.00       5.84      45.13      21.12      66.25        3.16  1732.83   0.820
  sub3                      80.76       0.00       0.00       7.38      45.85      20.05      65.90        1.48   609.90   0.816
  sub4                      80.76       0.00       0.00       1.67      62.39       6.20      68.59        1.43   662.02   0.849
  sub5                      80.76       0.00       0.00       0.88      61.25       3.81      65.06        0.74   446.05   0.806
  sub60                    238.15       0.00       0.00       1.48     160.84      20.58     205.34        2.70  2062.90   0.862
  sub61                    238.15       0.00       0.00       2.28     160.69      30.82     210.64        3.87  2864.33   0.884
  sub62                    238.15       0.00       0.00       1.00     171.35      13.98     207.71        5.69  4197.74   0.872
  sub63                    238.15       0.00       0.00       4.23     137.64      52.31     208.97        4.74  3439.42   0.877
  sub64                    238.15       0.00       0.00       2.02     156.78      25.81     205.76        4.94  3606.88   0.864
  sub65                    238.15       0.00       0.00       1.86     169.25      23.59     211.53        5.82  4083.83   0.888
  sub66                    238.15       0.00       0.00       5.03     133.25      49.73     204.69        9.54  6323.56   0.859
  sub67                    238.15       0.00       0.00       0.99     175.62      14.37     210.32        3.91  2981.47   0.883
  sub68                    238.15       0.00       0.00       1.75     155.13      23.65     203.75        5.61  4252.61   0.856
  sub69                    238.15       0.00       0.00       1.66     160.34      26.65     208.75        7.73  5478.46   0.877
  sub7                      80.76       0.00       0.00       1.04      55.97       4.59      60.56        0.20   136.28   0.750
  sub70                    238.15       0.00       0.00       5.73     128.58      60.56     208.15        6.01  3686.17   0.874
  sub71                    238.15       0.00       0.00       0.93     155.70      12.69     198.28        5.19  3928.13   0.833
  sub72                    238.15       0.00       0.00       0.89     168.28      11.85     204.83        2.82  2003.07   0.860
  sub8                      80.76       0.00       0.00       1.02      54.39       4.46      58.85        0.38   243.53   0.729
  sub9                      80.76       0.00       0.00       0.99      52.73       4.32      57.05        0.27   177.35   0.706
  

  ***********************
  LID Performance Summary
  ***********************

  --------------------------------------------------------------------------------------------------------------------
                                         Total      Evap     Infil   Surface    Drain    Initial     Final  Continuity
                                        Inflow      Loss      Loss   Outflow   Outflow   Storage   Storage       Error
  Subcatchment      LID Control             mm        mm        mm        mm        mm        mm        mm           %
  --------------------------------------------------------------------------------------------------------------------
  sub1              GreenRoof            80.76      0.00      0.00      0.00      0.00      7.05     87.82       -0.01
  sub10             GreenRoof            80.76      0.00      0.00      0.00      0.00      7.05     87.82       -0.01
  sub11             GreenRoof            80.76      0.00      0.00      0.00      0.00      7.05     87.82       -0.01
  sub12             GreenRoof            80.76      0.00      0.00      0.00      0.00      7.05     87.82       -0.01
  sub14             GreenRoof            80.76      0.00      0.00      0.00      0.00      7.05     87.82       -0.01
  sub15             GreenRoof            80.76      0.00      0.00      0.00      0.00      7.05     87.82       -0.01
  sub16             GreenRoof            80.76      0.00      0.00      0.00      0.00      7.05     87.82       -0.01
  sub17             GreenRoof            80.76      0.00      0.00      0.00      0.00      7.05     87.82       -0.01
  sub2              GreenRoof            80.76      0.00      0.00      0.00      0.00      7.05     87.82       -0.01
  sub22             GreenRoof            80.76      0.00      0.00      0.00      0.00      7.05     87.82       -0.01
  sub23             GreenRoof            80.76      0.00      0.00      0.00      0.00      7.05     87.82       -0.01
  sub3              GreenRoof            80.76      0.00      0.00      0.00      0.00      7.05     87.82       -0.01
  sub4              GreenRoof            80.76      0.00      0.00      0.00      0.00      7.05     87.82       -0.01
  sub5              GreenRoof            80.76      0.00      0.00      0.00      0.00      7.05     87.82       -0.01
  sub60             GreenRoof           238.15      0.00      0.00    104.78      0.00      7.05    140.42        0.00
  sub61             GreenRoof           238.15      0.00      0.00    104.78      0.00      7.05    140.42        0.00
  sub62             GreenRoof           238.15      0.00      0.00    104.78      0.00      7.05    140.42        0.00
  sub63             GreenRoof           238.15      0.00      0.00    104.78      0.00      7.05    140.42        0.00
  sub64             GreenRoof           238.15      0.00      0.00    104.78      0.00      7.05    140.42        0.00
  sub65             GreenRoof           238.15      0.00      0.00    104.78      0.00      7.05    140.42        0.00
  sub66             GreenRoof           238.15      0.00      0.00    104.78      0.00      7.05    140.42        0.00
  sub67             GreenRoof           238.15      0.00      0.00    104.78      0.00      7.05    140.42        0.00
  sub68             GreenRoof           238.15      0.00      0.00    104.78      0.00      7.05    140.42        0.00
  sub69             GreenRoof           238.15      0.00      0.00    104.78      0.00      7.05    140.42        0.00
  sub7              GreenRoof            80.76      0.00      0.00      0.00      0.00      7.05     87.82       -0.01
  sub70             GreenRoof           238.15      0.00      0.00    104.78      0.00      7.05    140.42        0.00
  sub71             GreenRoof           238.15      0.00      0.00    104.78      0.00      7.05    140.42        0.00
  sub72             GreenRoof           238.15      0.00      0.00    104.78      0.00      7.05    140.42        0.00
  sub8              GreenRoof            80.76      0.00      0.00      0.00      0.00      7.05     87.82       -0.01
  sub9              GreenRoof            80.76      0.00      0.00      0.00      0.00      7.05     87.82       -0.01
  
  ******************
  Node Depth Summary
  ******************
  
  ---------------------------------------------------------------------------------
                                 Average  Maximum  Maximum  Time of Max    Reported
                                   Depth    Depth      HGL   Occurrence   Max Depth
  Node                 Type       Meters   Meters   Meters  days hr:min      Meters
  ---------------------------------------------------------------------------------
  HS02004478           JUNCTION     0.27     1.75    10.98     0  01:34        1.75
  HS02004479           JUNCTION     0.36     1.77    10.97     0  01:34        1.77
  HS02004480           JUNCTION     0.32     1.79    11.03     0  01:34        1.79
  HS02004770           JUNCTION     0.32     1.42    11.25     0  01:33        1.42
  HS02004777           JUNCTION     0.35     1.48    11.28     0  01:33        1.48
  HS02004785           JUNCTION     0.23     1.49    11.39     0  01:33        1.41
  HS02004788           JUNCTION     0.20     1.42    11.32     0  01:33        1.42
  HS02004792           JUNCTION     0.27     1.60    11.12     0  01:32        1.60
  HS02004799           JUNCTION     0.39     1.76    10.97     0  01:34        1.76
  HS02004802           JUNCTION     0.38     1.81    10.94     0  01:34        1.81
  HS02004807           JUNCTION     0.35     1.92    11.09     0  01:36        1.92
  HS02004817           JUNCTION     0.67     2.41    11.26     0  01:39        2.41
  HS02004824           JUNCTION     0.22     2.01    11.41     0  01:39        2.01
  HS02004830           JUNCTION     0.21     1.98    11.45     0  01:36        1.98
  HS02004837           JUNCTION     0.18     1.94    11.52     0  01:36        1.89
  HS02004842           JUNCTION     0.48     2.22    11.49     0  01:36        2.20
  HS02004848           JUNCTION     0.16     1.99    11.59     0  01:36        1.87
  HS02004852           JUNCTION     0.17     2.05    11.56     0  01:36        1.93
  HS02004856           JUNCTION     0.23     2.07    11.49     0  01:36        2.04
  HS02004862           JUNCTION     0.18     2.00    11.38     0  01:36        2.00
  HS02004870           JUNCTION     0.18     2.10    11.39     0  01:36        2.10
  HS02004876           JUNCTION     0.23     2.26    11.29     0  01:36        2.26
  HS02004881           JUNCTION     0.16     2.15    11.18     0  01:36        2.15
  HS02004901           JUNCTION     0.33     1.42    11.24     0  01:33        1.42
  WS02001211           JUNCTION     0.66     0.83     5.67     0  01:38        0.82
  WS02001212           JUNCTION     0.40     0.61     5.67     0  01:37        0.58
  WS02001213           JUNCTION     0.63     0.92     5.68     0  01:37        0.91
  WS02003059           JUNCTION     0.69     0.97     5.65     0  01:39        0.95
  WS02003060           JUNCTION     0.40     0.70     5.63     0  01:40        0.70
  WS02003066           JUNCTION     0.23     0.46     6.01     0  01:38        0.46
  WS02003067           JUNCTION     0.52     0.90     6.22     0  01:40        0.89
  WS02003069           JUNCTION     0.45     0.79     5.37     0  01:41        0.79
  WS02003072           JUNCTION     0.51     0.82     5.19     0  01:42        0.82
  WS02003073           JUNCTION     0.31     0.52     4.59     0  01:42        0.52
  WS02004138           JUNCTION     0.13     0.14     7.39     0  00:29        0.14
  WS02004139           JUNCTION     0.59     0.76     5.67     0  01:41        0.76
  WS02004401           JUNCTION     0.80     2.66     8.66     0  01:28        2.66
  WS02004402           JUNCTION     0.81     2.74     8.70     0  01:28        2.74
  WS02004403           JUNCTION     0.81     3.03     8.96     0  01:29        3.03
  WS02004404           JUNCTION     0.87     3.78     9.63     0  01:29        3.78
  WS02004405           JUNCTION     0.85     3.80     9.65     0  01:29        3.80
  WS02004406           JUNCTION     0.83     3.13     8.96     0  01:29        3.13
  WS02004407           JUNCTION     0.28     0.97     7.28     0  01:38        0.97
  WS02004409           JUNCTION     0.56     1.42     7.19     0  01:31        1.41
  WS02004410           JUNCTION     0.56     1.32     7.04     0  01:39        1.32
  WS02004411           JUNCTION     0.55     1.22     6.90     0  01:39        1.22
  WS02004412           JUNCTION     0.54     1.12     6.76     0  01:38        1.12
  WS02004413           JUNCTION     0.65     1.15     6.62     0  01:38        1.15
  WS02006109           JUNCTION     1.09     2.64     9.26     0  01:34        2.64
  WS02006110           JUNCTION     1.01     2.46     9.05     0  01:28        2.41
  WS02006111           JUNCTION     0.50     2.38     9.09     0  01:28        2.08
  WS02006112           JUNCTION     1.05     2.68     8.56     0  01:28        2.45
  WS02006113           JUNCTION     0.58     2.17     9.07     0  01:28        1.86
  WS02006115           JUNCTION     0.75     3.26     9.40     0  01:28        2.02
  WS02006116           JUNCTION     0.80     3.15     9.19     0  01:28        2.06
  WS02006228           JUNCTION     1.17     3.03     9.68     0  01:34        3.03
  WS02006229           JUNCTION     1.19     3.25     9.94     0  01:34        3.22
  WS02006230           JUNCTION     1.12     2.65     9.39     0  01:32        2.65
  WS02006231           JUNCTION     0.82     2.23     9.36     0  02:18        2.21
  WS02006232           JUNCTION     0.92     2.18     9.22     0  01:32        2.18
  WS02006234           JUNCTION     0.81     1.96     9.12     0  01:31        1.96
  WS02006235           JUNCTION     0.83     2.00     9.16     0  02:18        2.00
  WS02006238           JUNCTION     0.85     2.15     9.29     0  03:14        2.15
  WS02006239           JUNCTION     0.79     2.03     9.24     0  01:24        2.03
  WS02006240           JUNCTION     0.74     2.10     9.39     0  01:24        2.10
  WS02006242           JUNCTION     0.77     1.55     8.82     0  01:25        1.55
  WS02006243           JUNCTION     0.67     1.48     8.90     0  01:25        1.48
  WS02006245           JUNCTION     0.65     1.56     9.04     0  01:25        1.56
  WS02006247           JUNCTION     0.65     1.47     8.97     0  01:25        1.47
  WS02006248           JUNCTION     0.60     1.10     8.69     0  01:25        1.10
  WS02006249           JUNCTION     0.62     1.09     8.69     0  01:26        1.09
  WS02006251           JUNCTION     0.76     2.21     9.88     0  01:36        2.16
  WS02006252           JUNCTION     0.53     1.50     9.74     0  00:00        1.50
  WS02006253           JUNCTION     0.85     3.28    10.92     0  01:36        3.28
  WS02006256           JUNCTION     1.25     2.35     9.28     0  00:00        2.35
  WS02006280           JUNCTION     0.36     1.78    10.05     0  01:34        1.74
  WS02006284           JUNCTION     0.62     2.08    10.48     0  01:34        2.08
  WS02006287           JUNCTION     0.35     1.89    10.84     0  01:34        1.89
  WSF200               JUNCTION     0.23     0.53     5.77     0  01:38        0.53
  YS02001580           JUNCTION     0.22     0.87     9.41     0  01:34        0.77
  YS02001583           JUNCTION     0.25     0.90     9.40     0  02:24        0.90
  YS02001586           JUNCTION     0.39     1.13     9.30     0  01:34        1.13
  YS02001590           JUNCTION     0.52     1.40     9.26     0  02:18        1.40
  YS02001593           JUNCTION     0.45     1.39     9.26     0  02:18        1.30
  YS02001596           JUNCTION     0.61     1.74     9.16     0  02:18        1.68
  YS02001600           JUNCTION     0.73     1.87     9.00     0  01:56        1.87
  YS02001601           JUNCTION     0.93     2.06     8.90     0  01:33        2.06
  YS02001602           JUNCTION     0.82     1.87     8.77     0  01:39        1.87
  YS02001605           JUNCTION     0.76     1.78     8.68     0  02:00        1.78
  YS02001607           JUNCTION     0.72     1.68     8.53     0  02:18        1.68
  YS02001610           JUNCTION     0.76     1.68     8.48     0  01:41        1.68
  YS02001613           JUNCTION     0.72     1.70     8.54     0  02:18        1.70
  YS02001616           JUNCTION     0.65     1.61     8.52     0  01:51        1.61
  YS02001619           JUNCTION     0.63     1.61     8.54     0  01:56        1.61
  YS02001622           JUNCTION     0.62     1.62     8.52     0  02:18        1.59
  YS02001625           JUNCTION     0.88     1.78     8.38     0  01:41        1.78
  YS02001629           JUNCTION     0.80     1.85     8.40     0  01:47        1.85
  YS02001633           JUNCTION     0.89     2.08     8.53     0  01:51        2.08
  YS02001641           JUNCTION     0.86     2.10     8.54     0  02:18        2.10
  YS02001644           JUNCTION     0.85     1.92     8.35     0  01:48        1.92
  YS02001647           JUNCTION     0.64     1.90     8.51     0  02:18        1.90
  YS02001649           JUNCTION     0.74     2.05     8.44     0  01:56        2.05
  YS02001652           JUNCTION     0.62     2.16     8.76     0  02:18        2.15
  YS02001655           JUNCTION     0.51     2.20     9.05     0  02:18        2.20
  YS02001658           JUNCTION     0.42     2.30     9.44     0  02:18        2.30
  YS02001661           JUNCTION     0.39     2.46     9.86     0  02:18        2.46
  YS02001664           JUNCTION     0.21     2.31    10.23     0  02:18        2.31
  YS02001745           JUNCTION     0.24     2.35     9.87     0  02:24        2.35
  YS02001748           JUNCTION     0.39     2.27     9.35     0  02:18        2.27
  YS02001751           JUNCTION     0.46     2.15     9.03     0  02:24        2.15
  YS02001754           JUNCTION     0.57     2.20     8.81     0  02:18        2.20
  YS02001757           JUNCTION     0.78     2.21     8.47     0  02:18        2.21
  YS02001759           JUNCTION     0.72     2.21     8.57     0  02:18        2.21
  YS02001762           JUNCTION     0.70     2.15     8.55     0  01:56        2.15
  YS02001765           JUNCTION     0.68     2.10     8.55     0  01:51        2.10
  YS02001767           JUNCTION     0.66     2.03     8.52     0  01:51        2.03
  YS02001770           JUNCTION     0.67     1.95     8.44     0  01:51        1.95
  YS02001774           JUNCTION     0.74     2.05     8.47     0  01:51        2.05
  YS02001779           JUNCTION     0.53     1.68     8.37     0  01:51        1.68
  YS02001783           JUNCTION     0.43     1.61     7.75     0  02:18        1.61
  YS02001784           JUNCTION     0.42     1.59     7.66     0  02:18        1.31
  YS02001786           JUNCTION     0.35     0.99     7.02     0  02:24        0.98
  YS02001788           JUNCTION     0.25     0.68     6.65     0  02:22        0.67
  YS02001790           JUNCTION     0.29     0.74     6.39     0  02:18        0.72
  YS02001791           JUNCTION     0.18     0.46     5.93     0  02:25        0.45
  YS02001793           JUNCTION     0.09     0.30     5.13     0  01:54        0.29
  YS02001882           JUNCTION     0.55     1.83     8.55     0  02:21        1.83
  YS02001884           JUNCTION     0.64     1.93     8.55     0  02:18        1.93
  YS02001887           JUNCTION     0.72     2.00     8.54     0  02:18        2.00
  YS02001890           JUNCTION     0.74     1.81     8.32     0  01:51        1.81
  YS02001895           JUNCTION     0.50     1.59     8.34     0  01:56        1.59
  YS02001898           JUNCTION     0.51     1.60     8.34     0  02:18        1.58
  YS02001901           JUNCTION     0.63     1.72     8.33     0  02:18        1.68
  YS02001904           JUNCTION     0.60     1.65     8.28     0  02:18        1.64
  YS02001907           JUNCTION     0.93     1.96     8.25     0  01:49        1.96
  YS02001910           JUNCTION     0.75     2.10     8.61     0  02:18        2.10
  YS02001915           JUNCTION     0.57     2.00     8.72     0  02:15        2.00
  YS02001918           JUNCTION     0.39     1.81     8.88     0  02:18        1.81
  YS02001920           JUNCTION     0.47     2.03     9.04     0  02:26        2.02
  YS02001923           JUNCTION     0.33     1.92     9.18     0  02:24        1.91
  YS02001926           JUNCTION     0.34     1.90     9.35     0  02:18        1.90
  YS02001929           JUNCTION     0.24     1.78     9.47     0  02:18        1.78
  YS02006553           JUNCTION     0.94     2.19     8.47     0  02:18        2.19
  YS02006556           JUNCTION     0.91     2.34     8.65     0  02:24        2.33
  YS02006558           JUNCTION     0.96     2.50     8.77     0  02:18        2.50
  YS02006561           JUNCTION     0.29     1.23     7.89     0  02:24        1.23
  YS02163301           JUNCTION     0.83     2.03     8.55     0  02:24        2.03
  YS02163601           JUNCTION     0.92     2.08     8.48     0  01:51        2.08
  YS02164001           JUNCTION     0.85     2.10     8.56     0  01:51        2.10
  YSB1154              JUNCTION     0.50     1.98    11.04     0  01:38        1.98
  YSB1171              JUNCTION     0.65     1.95    10.85     0  01:34        1.95
  YSB1174              JUNCTION     0.45     1.82    10.93     0  01:38        1.82
  YSB6556              JUNCTION     0.40     1.77    10.94     0  01:38        1.77
  CC-1                 OUTFALL      0.00     0.00     0.00     0  00:00        0.00
  CC-2                 OUTFALL      0.00     0.00     0.00     0  00:00        0.00
  JK-1                 OUTFALL      0.00     0.00     0.00     0  00:00        0.00
  JK-2                 OUTFALL      0.00     0.00     0.00     0  00:00        0.00
  WSC                  OUTFALL      0.31     0.52     1.19     0  01:43        0.52
  CC-storage           STORAGE      1.19     2.28     7.78     0  02:49        2.28
  JK-storage           STORAGE      2.52     4.24     5.04     0  01:50        4.21
  XR-storage           STORAGE      7.89     9.26     7.26     0  08:00        9.26
  
  
  *******************
  Node Inflow Summary
  *******************
  
  -------------------------------------------------------------------------------------------------
                                  Maximum  Maximum                  Lateral       Total        Flow
                                  Lateral    Total  Time of Max      Inflow      Inflow     Balance
                                   Inflow   Inflow   Occurrence      Volume      Volume       Error
  Node                 Type           LPS      LPS  days hr:min    10^6 ltr    10^6 ltr     Percent
  -------------------------------------------------------------------------------------------------
  HS02004478           JUNCTION      0.00  2308.32     0  01:37           0        9.49      -0.011
  HS02004479           JUNCTION      0.00   532.89     0  01:35           0        0.88       0.075
  HS02004480           JUNCTION      0.00  2183.15     0  01:34           0        7.12       0.024
  HS02004770           JUNCTION   1732.83  1732.83     0  01:39        3.16         3.4       0.094
  HS02004777           JUNCTION      0.03   831.01     0  01:33    0.000864        2.05       0.254
  HS02004785           JUNCTION      0.15   838.10     0  01:33     0.00432        2.04       0.032
  HS02004788           JUNCTION    603.00  1031.28     0  01:33        1.13        3.17      -0.016
  HS02004792           JUNCTION   2187.38  3016.41     0  01:39        4.41        7.58       0.006
  HS02004799           JUNCTION    346.00  1774.01     0  01:33       0.538        6.47       0.048
  HS02004802           JUNCTION      0.00  1234.27     0  01:44           0        2.52       0.157
  HS02004807           JUNCTION    450.24  1572.77     0  01:40       0.687        2.66       0.142
  HS02004817           JUNCTION      0.60  1147.66     0  01:40      0.0173        2.02       0.847
  HS02004824           JUNCTION    662.07  1146.72     0  01:40        1.43        2.23       0.041
  HS02004830           JUNCTION      0.15   755.27     0  01:34     0.00432        1.03       0.151
  HS02004837           JUNCTION    439.61   992.86     0  01:34       0.884        1.35       0.060
  HS02004842           JUNCTION      0.00   976.33     0  01:34           0       0.792       1.707
  HS02004848           JUNCTION    609.90  1240.30     0  01:34        1.48        2.07       0.010
  HS02004852           JUNCTION      0.00  1220.92     0  01:35           0        1.88       0.004
  HS02004856           JUNCTION    177.35  1343.15     0  01:35       0.274        2.16       0.091
  HS02004862           JUNCTION    283.66  1514.95     0  01:35       0.631        2.79       0.003
  HS02004870           JUNCTION    243.53  1680.34     0  01:35       0.376        3.16      -0.017
  HS02004876           JUNCTION    274.45  1594.16     0  01:35       0.464        3.62       0.005
  HS02004881           JUNCTION    136.28  1623.93     0  01:39       0.204        3.82      -0.008
  HS02004901           JUNCTION    406.33   630.99     0  01:40       0.671        1.06       0.171
  WS02001211           JUNCTION      7.35   263.32     0  01:36       0.212        5.44       0.611
  WS02001212           JUNCTION      0.00   315.06     0  01:33           0        5.42       0.290
  WS02001213           JUNCTION      0.00   321.92     0  01:33           0        5.41       0.326
  WS02003059           JUNCTION      0.00   358.95     0  01:32           0        5.41       0.591
  WS02003060           JUNCTION     16.53  1569.92     0  01:39       0.476        15.3       0.095
  WS02003066           JUNCTION      0.00  1332.75     0  01:39           0        9.44       0.017
  WS02003067           JUNCTION      0.00  1326.81     0  01:39           0        9.45       0.044
  WS02003069           JUNCTION      0.32  1543.12     0  01:41     0.00922        15.3       0.101
  WS02003072           JUNCTION      0.00  1538.02     0  01:42           0        15.2       0.137
  WS02003073           JUNCTION      1.82  1540.74     0  01:42      0.0524        15.3       0.140
  WS02004138           JUNCTION      0.00   380.00     0  00:00           0        5.25       0.057
  WS02004139           JUNCTION      0.32   212.35     0  01:35     0.00924        5.26       0.509
  WS02004401           JUNCTION      0.00  1326.07     0  01:39           0        9.55       0.111
  WS02004402           JUNCTION      0.00  1326.75     0  01:39           0        9.54       0.109
  WS02004403           JUNCTION      0.00  1326.65     0  01:39           0        9.53       0.109
  WS02004404           JUNCTION      0.16  1326.89     0  01:39     0.00467        9.52       0.086
  WS02004405           JUNCTION      0.04  1328.34     0  01:39      0.0011        9.52       0.137
  WS02004406           JUNCTION      0.00  1327.46     0  01:39           0         9.5       0.217
  WS02004407           JUNCTION      0.00  1327.01     0  01:39           0        9.48       0.013
  WS02004409           JUNCTION      0.00  1326.72     0  01:39           0        9.48       0.031
  WS02004410           JUNCTION      0.00  1326.76     0  01:39           0        9.48       0.050
  WS02004411           JUNCTION      0.00  1326.97     0  01:39           0        9.47       0.062
  WS02004412           JUNCTION      0.00  1326.72     0  01:39           0        9.47       0.079
  WS02004413           JUNCTION      0.00  1326.70     0  01:39           0        9.46       0.152
  WS02006109           JUNCTION      1.23  1291.15     0  01:37      0.0354        9.32       0.087
  WS02006110           JUNCTION      0.00  1120.33     0  02:04           0        8.99       0.101
  WS02006111           JUNCTION      0.00  1120.51     0  02:04           0        8.98       0.001
  WS02006112           JUNCTION    354.15  1326.17     0  01:39       0.598        9.58       0.152
  WS02006113           JUNCTION      0.00  1120.51     0  02:03           0        8.98       0.028
  WS02006115           JUNCTION      0.00  1325.74     0  01:38           0        9.56       0.108
  WS02006116           JUNCTION      0.00  1326.44     0  01:39           0        9.55       0.015
  WS02006228           JUNCTION      0.00  1290.39     0  01:37           0        9.29       0.049
  WS02006229           JUNCTION      0.00  2310.39     0  01:37           0        11.9       0.039
  WS02006230           JUNCTION     10.28  1028.82     0  01:37       0.296        5.16       0.097
  WS02006231           JUNCTION      0.00   564.44     0  03:41           0        3.78      -0.106
  WS02006232           JUNCTION      0.00   561.65     0  03:41           0        3.78       0.123
  WS02006234           JUNCTION      0.00   556.05     0  03:41           0        3.78      -0.068
  WS02006235           JUNCTION      0.00   543.70     0  03:41           0        3.84       0.042
  WS02006238           JUNCTION      0.00   449.78     0  02:18           0        3.35      -0.050
  WS02006239           JUNCTION      0.00   428.02     0  03:34           0        3.35      -0.070
  WS02006240           JUNCTION      0.00   426.59     0  03:39           0        3.35      -0.016
  WS02006242           JUNCTION      0.00   427.55     0  03:37           0        3.35       0.038
  WS02006243           JUNCTION      0.00   429.32     0  03:37           0        2.89      -0.022
  WS02006245           JUNCTION      0.00   430.13     0  03:37           0        2.89       0.108
  WS02006247           JUNCTION      0.00   429.67     0  03:37           0        2.89       0.008
  WS02006248           JUNCTION      0.00   429.32     0  03:37           0         3.2       0.017
  WS02006249           JUNCTION      0.00  1369.70     0  01:39           0        7.26       0.042
  WS02006251           JUNCTION      0.08  1666.60     0  01:39     0.00222        7.43      -0.016
  WS02006252           JUNCTION      0.00   698.23     0  01:39           0         4.2      -0.000
  WS02006253           JUNCTION     44.80  1667.37     0  01:39      0.0636        3.89      -0.005
  WS02006256           JUNCTION      0.00   300.00     0  00:00           0        2.12      -0.096
  WS02006280           JUNCTION      0.00  2308.22     0  01:37           0        9.47       0.014
  WS02006284           JUNCTION      0.10  2308.57     0  01:37     0.00275        9.47       0.004
  WS02006287           JUNCTION      0.00  2309.71     0  01:37           0        9.47       0.005
  WSF200               JUNCTION      0.00  1332.88     0  01:39           0        9.44       0.009
  YS02001580           JUNCTION      0.00    49.76     0  01:33           0     0.00438       0.016
  YS02001583           JUNCTION      0.00    76.95     0  01:33           0      0.0164      -2.343
  YS02001586           JUNCTION   3686.17  3686.28     0  02:25        6.01        6.02       0.023
  YS02001590           JUNCTION      0.00   332.01     0  02:18           0        2.19      -0.026
  YS02001593           JUNCTION      0.00   335.97     0  02:18           0        2.19       0.012
  YS02001596           JUNCTION      0.00   318.65     0  02:18           0        2.19       0.001
  YS02001600           JUNCTION      0.00   318.96     0  02:18           0        2.19       0.007
  YS02001601           JUNCTION   5478.46  5796.06     0  02:25        7.73        9.92       0.018
  YS02001602           JUNCTION      0.00   498.99     0  01:33           0        3.21       0.016
  YS02001605           JUNCTION      0.00   498.47     0  01:33           0         2.9       0.025
  YS02001607           JUNCTION      0.00   497.83     0  01:33           0         2.9       0.063
  YS02001610           JUNCTION      0.00   956.87     0  02:24           0        4.34       0.061
  YS02001613           JUNCTION      0.00   620.36     0  02:24           0        3.01       0.054
  YS02001616           JUNCTION      0.00   625.45     0  02:24           0        3.02       0.014
  YS02001619           JUNCTION   6323.56  6323.56     0  02:25        9.54        11.1       0.008
  YS02001622           JUNCTION      0.00  1074.78     0  02:18           0        6.56      -0.002
  YS02001625           JUNCTION      0.00  1505.44     0  02:24           0        7.68       0.159
  YS02001629           JUNCTION      0.00  1138.94     0  02:22           0        4.65      -0.014
  YS02001633           JUNCTION   4084.03  4084.03     0  02:25        5.83        8.59       0.043
  YS02001641           JUNCTION      0.00  1183.90     0  01:39           0        5.91       0.053
  YS02001644           JUNCTION   3606.92  5358.36     0  02:25        4.94        11.9       0.033
  YS02001647           JUNCTION      0.00  1454.56     0  01:39           0        6.63       0.003
  YS02001649           JUNCTION      0.00  3233.93     0  02:25           0        10.4       0.008
  YS02001652           JUNCTION      0.00  2435.53     0  02:24           0        4.53      -0.021
  YS02001655           JUNCTION      0.15  2731.44     0  02:26     0.00443        4.63       0.032
  YS02001658           JUNCTION      0.00  2783.77     0  02:24           0        4.64      -0.076
  YS02001661           JUNCTION      0.00  2783.61     0  02:25           0        4.64      -0.063
  YS02001664           JUNCTION   3439.42  3439.42     0  02:25        4.74        4.74       0.007
  YS02001745           JUNCTION   2062.90  2062.90     0  02:24         2.7         2.7       0.033
  YS02001748           JUNCTION      0.04  2070.94     0  02:24      0.0013         2.7      -0.059
  YS02001751           JUNCTION      0.01  2079.15     0  02:24    0.000317         2.7       0.017
  YS02001754           JUNCTION      0.26  2085.77     0  02:24     0.00749        2.71      -0.053
  YS02001757           JUNCTION      0.00  3497.82     0  02:24           0        15.9       0.009
  YS02001759           JUNCTION   2864.37  2864.37     0  02:24        3.87        5.87      -0.001
  YS02001762           JUNCTION      0.00   721.86     0  02:26           0        2.51       0.000
  YS02001765           JUNCTION      0.00   721.57     0  02:26           0        2.51       0.002
  YS02001767           JUNCTION      0.54   722.23     0  02:26      0.0154        2.51      -0.004
  YS02001770           JUNCTION   4197.89  4918.85     0  02:25        5.69        6.25       0.000
  YS02001774           JUNCTION      0.00  1044.18     0  02:18           0        1.72       0.060
  YS02001779           JUNCTION      0.01   851.71     0  02:17    0.000144        1.67      -0.007
  YS02001783           JUNCTION      0.00  1324.43     0  02:24           0        6.97       0.005
  YS02001784           JUNCTION      1.06  1322.70     0  02:24      0.0305        7.01       0.009
  YS02001786           JUNCTION      0.06  1322.92     0  02:24     0.00162        7.01       0.006
  YS02001788           JUNCTION      0.07  1322.92     0  02:24     0.00204        7.01       0.004
  YS02001790           JUNCTION      0.15  1329.37     0  02:22     0.00446        7.01       0.020
  YS02001791           JUNCTION      0.00  1373.12     0  02:25           0        7.01      -0.034
  YS02001793           JUNCTION      0.00  1361.68     0  02:23           0        7.01       0.003
  YS02001882           JUNCTION      0.00    30.44     0  01:19           0      0.0171       3.957
  YS02001884           JUNCTION      0.00    40.19     0  01:17           0      0.0534       4.979
  YS02001887           JUNCTION   2981.92  2983.15     0  02:24        3.92        3.96       0.117
  YS02001890           JUNCTION      0.00  2052.03     0  02:27           0        3.72       0.145
  YS02001895           JUNCTION      0.00   529.62     0  02:18           0        2.27       0.092
  YS02001898           JUNCTION      0.00   539.48     0  02:18           0        2.26      -0.000
  YS02001901           JUNCTION      0.00   520.21     0  02:18           0        2.27       0.153
  YS02001904           JUNCTION      0.00   518.37     0  02:18           0        2.27       0.122
  YS02001907           JUNCTION      0.00  4674.25     0  02:24           0        9.83       0.188
  YS02001910           JUNCTION      0.00  1993.14     0  02:24           0        6.06       0.114
  YS02001915           JUNCTION   3928.15  5149.84     0  02:25        5.18        7.85       0.027
  YS02001918           JUNCTION      0.00  1681.34     0  02:26           0        2.85       0.015
  YS02001920           JUNCTION      2.87  1681.54     0  02:26      0.0827        2.85       0.033
  YS02001923           JUNCTION      0.04  1679.16     0  02:24     0.00109        2.77      -0.003
  YS02001926           JUNCTION      0.05  1678.55     0  02:24      0.0015        2.77       0.005
  YS02001929           JUNCTION   2003.07  2003.07     0  02:25        2.82        2.82      -0.002
  YS02006553           JUNCTION      0.00  2165.55     0  02:24           0         4.5       0.261
  YS02006556           JUNCTION      0.00  2163.02     0  02:24           0        4.51       0.186
  YS02006558           JUNCTION   4253.49  4253.49     0  02:24        5.63        8.62       0.042
  YS02006561           JUNCTION      0.00  1322.07     0  02:24           0        6.98       0.001
  YS02163301           JUNCTION      0.00  1138.83     0  02:21           0        4.66       0.033
  YS02163601           JUNCTION      0.11  1183.33     0  01:38     0.00317         5.9       0.080
  YS02164001           JUNCTION      0.00  1183.57     0  01:38           0         5.9       0.044
  YSB1154              JUNCTION    446.05   446.05     0  01:39       0.737       0.738       0.194
  YSB1171              JUNCTION      0.00  1033.61     0  01:39           0        1.42       0.456
  YSB1174              JUNCTION    383.73   383.73     0  01:38       0.551       0.551       0.221
  YSB6556              JUNCTION      0.00   446.40     0  01:39           0       0.739       0.152
  CC-1                 OUTFALL       0.00   683.00     0  00:00           0        6.31       0.000
  CC-2                 OUTFALL       0.00   683.00     0  00:00           0        5.92       0.000
  JK-1                 OUTFALL       0.00  1000.00     0  00:00           0        4.85       0.000
  JK-2                 OUTFALL       0.00  1000.00     0  00:00           0      0.0226       0.000
  WSC                  OUTFALL       0.00  1539.80     0  01:43           0        15.2       0.000
  CC-storage           STORAGE       0.00  2694.56     0  01:59           0        17.8      -0.123
  JK-storage           STORAGE       0.00  1360.26     0  02:23           0        7.16       0.045
  XR-storage           STORAGE     200.00   200.00     0  00:00        5.76        6.36       0.001
  
  
  **********************
  Node Surcharge Summary
  **********************
  
  Surcharging occurs when water rises above the top of the highest conduit.
  ---------------------------------------------------------------------
                                               Max. Height   Min. Depth
                                   Hours       Above Crown    Below Rim
  Node                 Type      Surcharged         Meters       Meters
  ---------------------------------------------------------------------
  HS02004478           JUNCTION        0.58          0.830        0.110
  HS02004479           JUNCTION        0.72          0.968        0.082
  HS02004480           JUNCTION        0.77          1.080        0.020
  HS02004770           JUNCTION        0.68          0.720        0.000
  HS02004777           JUNCTION        0.68          0.780        0.000
  HS02004785           JUNCTION        0.62          0.790        0.000
  HS02004788           JUNCTION        0.61          0.720        0.000
  HS02004792           JUNCTION        0.74          0.900        0.000
  HS02004799           JUNCTION        0.86          1.060        0.000
  HS02004802           JUNCTION        0.77          1.101        0.109
  HS02004807           JUNCTION        0.74          1.220        0.000
  HS02004817           JUNCTION        1.41          1.709        0.031
  HS02004824           JUNCTION        0.61          1.310        0.000
  HS02004830           JUNCTION        0.58          1.282        0.048
  HS02004837           JUNCTION        0.53          1.243        0.097
  HS02004842           JUNCTION        0.67          1.520        0.000
  HS02004848           JUNCTION        0.51          1.294        0.076
  HS02004852           JUNCTION        0.53          1.346        0.074
  HS02004856           JUNCTION        0.52          1.299        0.001
  HS02004862           JUNCTION        0.55          1.300        0.000
  HS02004870           JUNCTION        0.58          1.400        0.000
  HS02004876           JUNCTION        0.65          1.560        0.000
  HS02004881           JUNCTION        0.63          1.450        0.000
  HS02004901           JUNCTION        0.68          0.720        0.000
  WS02004401           JUNCTION        1.77          1.660        0.000
  WS02004402           JUNCTION        1.78          1.740        0.000
  WS02004403           JUNCTION        1.78          2.030        0.000
  WS02004404           JUNCTION        1.93          2.780        0.000
  WS02004405           JUNCTION        1.89          2.800        0.000
  WS02004406           JUNCTION        1.86          2.127        0.323
  WS02004409           JUNCTION        1.15          0.420        1.940
  WS02004410           JUNCTION        1.08          0.319        2.221
  WS02004411           JUNCTION        1.00          0.223        2.307
  WS02004412           JUNCTION        0.88          0.117        2.193
  WS02004413           JUNCTION        1.58          0.152        2.048
  WS02006109           JUNCTION        2.80          1.820        0.000
  WS02006110           JUNCTION        2.39          1.554        0.296
  WS02006111           JUNCTION        1.51          1.571        0.299
  WS02006112           JUNCTION        2.50          1.680        0.000
  WS02006113           JUNCTION        1.53          1.373        0.557
  WS02006115           JUNCTION        1.73          2.250        0.000
  WS02006116           JUNCTION        1.75          2.093        0.197
  WS02006228           JUNCTION        2.79          2.200        0.000
  WS02006229           JUNCTION        1.07          1.066        0.004
  WS02006230           JUNCTION        2.22          1.570        0.000
  WS02006231           JUNCTION        2.39          1.524        0.006
  WS02006232           JUNCTION        2.77          1.480        0.000
  WS02006234           JUNCTION        2.69          1.240        0.000
  WS02006235           JUNCTION        2.72          1.290        0.000
  WS02006238           JUNCTION        2.75          1.430        0.000
  WS02006239           JUNCTION        2.72          1.290        0.000
  WS02006240           JUNCTION        2.73          1.390        0.000
  WS02006242           JUNCTION        2.74          0.820        0.000
  WS02006243           JUNCTION        2.72          0.770        0.000
  WS02006245           JUNCTION        2.71          0.850        0.000
  WS02006247           JUNCTION        2.72          0.760        0.000
  WS02006248           JUNCTION        2.70          0.380        0.000
  WS02006249           JUNCTION        2.70          0.390        0.000
  WS02006251           JUNCTION        2.45          1.180        0.000
  WS02006252           JUNCTION        2.69          1.100        0.000
  WS02006253           JUNCTION        2.46          2.238        0.242
  WS02006256           JUNCTION        4.26          2.050        0.000
  WS02006280           JUNCTION        0.88          0.725        0.055
  WS02006284           JUNCTION        0.79          0.800        0.000
  WS02006287           JUNCTION        0.69          0.890        0.000
  YS02001580           JUNCTION        1.46          0.268        0.182
  YS02001583           JUNCTION        1.47          0.263        0.237
  YS02001586           JUNCTION        1.60          0.510        0.000
  YS02001590           JUNCTION        1.68          0.750        0.000
  YS02001593           JUNCTION        1.68          0.773        0.067
  YS02001596           JUNCTION        1.81          1.009        0.061
  YS02001600           JUNCTION        1.96          1.190        0.000
  YS02001601           JUNCTION        2.21          1.440        0.000
  YS02001602           JUNCTION        2.14          1.270        0.000
  YS02001605           JUNCTION        2.11          1.180        0.000
  YS02001607           JUNCTION        1.70          0.680        0.000
  YS02001610           JUNCTION        1.72          0.680        0.000
  YS02001613           JUNCTION        1.69          0.700        0.000
  YS02001616           JUNCTION        1.65          0.610        0.000
  YS02001619           JUNCTION        1.64          0.610        0.000
  YS02001622           JUNCTION        1.64          0.620        0.000
  YS02001625           JUNCTION        1.85          0.780        0.000
  YS02001629           JUNCTION        1.55          0.470        0.000
  YS02001633           JUNCTION        1.91          1.060        0.000
  YS02001641           JUNCTION        1.87          1.100        0.000
  YS02001644           JUNCTION        1.83          0.920        0.000
  YS02001647           JUNCTION        1.60          0.900        0.000
  YS02001649           JUNCTION        1.75          1.050        0.000
  YS02001652           JUNCTION        1.57          1.130        0.000
  YS02001655           JUNCTION        1.37          1.200        0.000
  YS02001658           JUNCTION        1.11          1.300        0.000
  YS02001661           JUNCTION        0.49          1.390        0.000
  YS02001664           JUNCTION        0.26          1.310        0.000
  YS02001745           JUNCTION        0.26          1.350        0.000
  YS02001748           JUNCTION        0.94          1.190        0.000
  YS02001751           JUNCTION        1.28          1.151        0.049
  YS02001754           JUNCTION        1.51          1.150        0.000
  YS02001757           JUNCTION        1.84          1.210        0.000
  YS02001759           JUNCTION        1.75          1.210        0.000
  YS02001762           JUNCTION        1.71          1.150        0.000
  YS02001765           JUNCTION        1.68          1.100        0.000
  YS02001767           JUNCTION        1.65          1.030        0.000
  YS02001770           JUNCTION        1.63          0.920        0.000
  YS02001774           JUNCTION        1.71          1.050        0.000
  YS02001779           JUNCTION        1.49          0.680        0.000
  YS02001783           JUNCTION        1.30          0.806        0.794
  YS02001784           JUNCTION        1.26          0.788        0.702
  YS02001786           JUNCTION        1.09          0.194        1.236
  YS02001882           JUNCTION        1.20          0.830        0.000
  YS02001884           JUNCTION        1.22          0.870        0.000
  YS02001887           JUNCTION        1.28          0.950        0.000
  YS02001890           JUNCTION        1.30          0.760        0.000
  YS02001895           JUNCTION        1.19          0.589        0.161
  YS02001898           JUNCTION        1.18          0.571        0.169
  YS02001901           JUNCTION        1.26          0.724        0.146
  YS02001904           JUNCTION        1.24          0.654        0.196
  YS02001907           JUNCTION        1.63          0.950        0.000
  YS02001910           JUNCTION        1.35          1.100        0.000
  YS02001915           JUNCTION        1.20          1.000        0.000
  YS02001918           JUNCTION        1.06          0.810        0.000
  YS02001920           JUNCTION        1.08          1.031        0.109
  YS02001923           JUNCTION        0.50          0.712        0.108
  YS02001926           JUNCTION        0.54          0.900        0.000
  YS02001929           JUNCTION        0.36          0.780        0.000
  YS02006553           JUNCTION        1.64          1.190        0.000
  YS02006556           JUNCTION        1.48          1.297        0.053
  YS02006558           JUNCTION        1.46          1.400        0.000
  YS02006561           JUNCTION        1.02          0.426        0.724
  YS02163301           JUNCTION        1.88          1.030        0.000
  YS02163601           JUNCTION        1.97          1.080        0.000
  YS02164001           JUNCTION        1.86          1.100        0.000
  YSB1154              JUNCTION        1.00          1.278        0.122
  YSB1171              JUNCTION        1.01          1.100        0.000
  YSB1174              JUNCTION        0.89          1.117        0.133
  YSB6556              JUNCTION        0.82          1.072        0.028
  
  
  *********************
  Node Flooding Summary
  *********************
  
  Flooding refers to all water that overflows a node, whether it ponds or not.
  --------------------------------------------------------------------------
                                                             Total   Maximum
                                 Maximum   Time of Max       Flood    Ponded
                        Hours       Rate    Occurrence      Volume     Depth
  Node                 Flooded       LPS   days hr:min    10^6 ltr    Meters
  --------------------------------------------------------------------------
  HS02004770              0.42   1293.87      0  01:39       0.969     0.000
  HS02004777              0.01     64.76      0  01:33       0.001     0.000
  HS02004785              0.01     57.49      0  01:33       0.000     0.000
  HS02004788              0.01    575.63      0  01:33       0.006     0.000
  HS02004792              0.45   1874.02      0  01:39       1.652     0.000
  HS02004799              0.18    291.31      0  01:37       0.089     0.000
  HS02004807              0.13    340.43      0  01:40       0.098     0.000
  HS02004824              0.01      0.55      0  01:39       0.000     0.000
  HS02004842              0.01     79.18      0  01:36       0.001     0.000
  HS02004862              0.01    254.17      0  01:36       0.006     0.000
  HS02004870              0.01     15.60      0  01:36       0.000     0.000
  HS02004876              0.01    308.34      0  01:36       0.003     0.000
  HS02004881              0.01    569.13      0  01:36       0.002     0.000
  HS02004901              0.53    630.98      0  01:40       0.813     0.000
  WS02004401              0.01     32.76      0  01:28       0.000     0.000
  WS02004402              0.01     18.11      0  01:29       0.000     0.000
  WS02004403              0.01     31.12      0  01:29       0.000     0.000
  WS02004404              0.01     42.27      0  01:29       0.000     0.000
  WS02004405              0.01     62.59      0  01:29       0.000     0.000
  WS02006109              0.50    317.79      0  01:39       0.321     0.000
  WS02006112              0.01     20.13      0  01:28       0.000     0.000
  WS02006115              0.01    115.87      0  01:28       0.000     0.000
  WS02006228              0.01      6.65      0  01:34       0.000     0.000
  WS02006230              0.80    576.16      0  01:37       1.128     0.000
  WS02006232              0.21     19.98      0  02:18       0.000     0.000
  WS02006234              0.88    128.67      0  01:38       0.368     0.000
  WS02006235              0.01     38.29      0  02:18       0.000     0.000
  WS02006238              0.01      1.97      0  03:14       0.000     0.000
  WS02006239              0.01    101.85      0  01:24       0.000     0.000
  WS02006240              0.01    109.74      0  01:24       0.000     0.000
  WS02006242              1.03    210.61      0  01:25       0.464     0.000
  WS02006243              0.01    208.31      0  01:25       0.000     0.000
  WS02006245              0.01    116.27      0  01:25       0.000     0.000
  WS02006247              0.01    198.56      0  01:25       0.000     0.000
  WS02006248              1.52    343.41      0  01:33       1.463     0.000
  WS02006249              2.36   1307.72      0  01:39       5.210     0.000
  WS02006251              0.01    140.46      0  01:36       0.001     0.000
  WS02006252              0.57    697.27      0  01:39       0.668     0.000
  WS02006256              1.96    293.19      0  00:00       1.214     0.000
  WS02006284              0.01     22.06      0  01:34       0.000     0.000
  WS02006287              0.01     48.05      0  01:34       0.000     0.000
  YS02001586              1.28   3366.80      0  02:25       3.818     0.000
  YS02001590              0.01      1.85      0  02:18       0.000     0.000
  YS02001600              0.01      7.25      0  02:18       0.000     0.000
  YS02001601              1.53   5397.02      0  02:25       6.709     0.000
  YS02001602              1.43     75.69      0  02:18       0.309     0.000
  YS02001605              0.01      1.84      0  02:18       0.000     0.000
  YS02001607              0.01      0.37      0  02:18       0.000     0.000
  YS02001610              1.35    956.33      0  02:24       2.773     0.000
  YS02001613              0.01      6.82      0  02:18       0.000     0.000
  YS02001616              0.14     23.49      0  02:18       0.001     0.000
  YS02001619              0.48   4649.77      0  02:25       3.098     0.000
  YS02001622              0.01     17.43      0  02:18       0.000     0.000
  YS02001625              1.37   1505.24      0  02:24       4.907     0.000
  YS02001629              0.52    686.80      0  02:22       0.781     0.000
  YS02001633              0.24   2039.19      0  02:25       0.790     0.000
  YS02001641              0.01     35.34      0  02:18       0.000     0.000
  YS02001644              0.89   5357.87      0  02:25       6.276     0.000
  YS02001647              0.01      0.07      0  02:18       0.000     0.000
  YS02001649              0.26   2387.14      0  02:25       1.364     0.000
  YS02001652              0.01     87.16      0  02:18       0.000     0.000
  YS02001655              0.12    303.21      0  02:24       0.104     0.000
  YS02001658              0.08     52.18      0  02:24       0.014     0.000
  YS02001661              0.01      0.85      0  02:18       0.000     0.000
  YS02001664              0.08    655.89      0  02:25       0.106     0.000
  YS02001745              0.01      4.13      0  02:24       0.000     0.000
  YS02001748              0.01      0.81      0  02:18       0.000     0.000
  YS02001754              0.01      0.41      0  02:18       0.000     0.000
  YS02001757              0.06    231.69      0  02:24       0.023     0.000
  YS02001759              0.10    736.04      0  02:24       0.139     0.000
  YS02001762              0.04     15.43      0  02:18       0.000     0.000
  YS02001765              0.01      3.97      0  01:56       0.000     0.000
  YS02001767              0.01      4.77      0  02:18       0.000     0.000
  YS02001770              0.39   4066.99      0  02:25       2.561     0.000
  YS02001774              0.01    279.35      0  02:18       0.002     0.000
  YS02001779              0.78    851.44      0  02:17       1.656     0.000
  YS02001882              0.01      0.54      0  02:21       0.000     0.000
  YS02001884              0.01      0.74      0  02:21       0.000     0.000
  YS02001887              0.11    930.46      0  02:24       0.197     0.000
  YS02001890              0.62   1538.07      0  02:24       1.447     0.000
  YS02001907              0.99   4673.89      0  02:24       6.811     0.000
  YS02001910              0.01      0.04      0  02:18       0.000     0.000
  YS02001915              0.31   3157.39      0  02:25       1.781     0.000
  YS02001918              0.18    459.61      0  02:26       0.189     0.000
  YS02001926              0.01      1.25      0  02:18       0.000     0.000
  YS02001929              0.08    325.28      0  02:25       0.049     0.000
  YS02006553              0.01      1.10      0  02:18       0.000     0.000
  YS02006558              0.07    776.18      0  02:24       0.119     0.000
  YS02163301              0.01      0.33      0  02:24       0.000     0.000
  YS02163601              0.01     45.91      0  02:18       0.000     0.000
  YS02164001              0.01      4.91      0  01:51       0.000     0.000
  YSB1171                 0.31   1033.22      0  01:39       0.665     0.000
  
  
  **********************
  Storage Volume Summary
  **********************
  
  --------------------------------------------------------------------------------------------------
                         Average     Avg  Evap Exfil       Maximum     Max    Time of Max    Maximum
                          Volume    Pcnt  Pcnt  Pcnt        Volume    Pcnt     Occurrence    Outflow
  Storage Unit           1000 m3    Full  Loss  Loss       1000 m3    Full    days hr:min        LPS
  --------------------------------------------------------------------------------------------------
  CC-storage               3.326      52     0     0         6.342      99       0  02:49    1779.37
  JK-storage               0.127      43     0     0         0.213      73       0  01:50    2300.00
  XR-storage               0.947      66     0     0         1.111      77       0  08:00     380.00
  
  
  ***********************
  Outfall Loading Summary
  ***********************
  
  -----------------------------------------------------------
                         Flow       Avg       Max       Total
                         Freq      Flow      Flow      Volume
  Outfall Node           Pcnt       LPS       LPS    10^6 ltr
  -----------------------------------------------------------
  CC-1                  46.60    683.00    683.00       6.311
  CC-2                  43.94    683.00    683.00       5.921
  JK-1                  26.04   1000.00   1000.00       4.849
  JK-2                   0.10   1000.00   1000.00       0.023
  WSC                   99.95    673.09   1539.80      15.246
  -----------------------------------------------------------
  System                43.33   4039.09   1539.80      32.350
  
  
  ********************
  Link Flow Summary
  ********************
  
  -----------------------------------------------------------------------------
                                 Maximum  Time of Max   Maximum    Max/    Max/
                                  |Flow|   Occurrence   |Veloc|    Full    Full
  Link                 Type          LPS  days hr:min     m/sec    Flow   Depth
  -----------------------------------------------------------------------------
  1                    CONDUIT   1539.80     0  01:43      3.72    0.54    0.52
  HS02004478WS02006287 CONDUIT   2309.71     0  01:37      2.57    0.65    1.00
  HS02004479HS02004480 CONDUIT    532.61     0  01:35      0.76    0.51    1.00
  HS02004480HS02004478 CONDUIT   2186.70     0  01:34      3.12    9.21    1.00
  HS02004770HS02004777 CONDUIT    830.98     0  01:33      1.19    1.52    1.00
  HS02004777HS02004785 CONDUIT    837.95     0  01:33      1.30    1.03    1.00
  HS02004785HS02004788 CONDUIT    792.91     0  01:33      1.34    5.98    1.00
  HS02004788HS02004792 CONDUIT    830.52     0  01:38      1.39    0.55    1.00
  HS02004792HS02004799 CONDUIT   1615.12     0  01:33      2.31    0.99    1.00
  HS02004799HS02004480 CONDUIT   1769.43     0  01:34      2.53    2.24    1.00
  HS02004802HS02004478 CONDUIT   1233.90     0  01:43      1.76    1.09    1.00
  HS02004807HS02004802 CONDUIT   1234.27     0  01:44      1.76    2.36    1.00
  HS02004817HS02004807 CONDUIT   1147.66     0  01:40      1.64    0.68    1.00
  HS02004817HS02004824 CONDUIT   1147.06     0  01:40      1.64    0.52    1.00
  HS02004824HS02004830 CONDUIT    755.12     0  01:34      1.08    0.99    1.00
  HS02004830HS02004837 CONDUIT    766.55     0  01:34      1.16    0.76    1.00
  HS02004837HS02004842 CONDUIT    976.33     0  01:34      1.39    0.58    1.00
  HS02004842HS02004848 CONDUIT    974.94     0  01:34      1.53    0.57    1.00
  HS02004848HS02004852 CONDUIT   1220.92     0  01:35      1.74    1.38    1.00
  HS02004852HS02004856 CONDUIT   1221.10     0  01:35      1.74    1.40    1.00
  HS02004856HS02004862 CONDUIT   1346.45     0  01:35      1.95    1.34    1.00
  HS02004862HS02004870 CONDUIT   1497.73     0  01:35      2.26    1.62    1.00
  HS02004870HS02004876 CONDUIT   1402.36     0  01:35      2.00    0.93    1.00
  HS02004876HS02004881 CONDUIT   1491.09     0  01:36      2.13   15.86    1.00
  HS02004881HS02006253 CONDUIT   1624.69     0  01:39      2.32    0.32    1.00
  HS02004901HS02004770 CONDUIT    265.79     0  01:59      0.38    1.00    1.00
  WS02001211WS02001212 CONDUIT    228.85     0  01:38      0.54    0.17    0.71
  WS02001212WS02001213 CONDUIT    296.67     0  01:38      1.04    0.46    0.58
  WS02001213WS02003059 CONDUIT    240.77     0  01:40      0.47    0.40    0.91
  WS02003059WS02003060 CONDUIT    230.54     0  01:39      0.67    0.15    0.83
  WS02003060WS02003069 CONDUIT   1542.80     0  01:41      2.16    0.60    0.62
  WS02003066WSF200     CONDUIT   1332.88     0  01:39      3.55    0.23    0.39
  WS02003067WS02003066 CONDUIT   1332.75     0  01:39      2.04    0.43    0.56
  WS02003069WS02003072 CONDUIT   1538.02     0  01:42      1.91    0.74    0.67
  WS02003072WS02003073 CONDUIT   1538.92     0  01:42      2.07    3.32    0.63
  WS02004138WS02004139 CONDUIT    193.16     0  00:29      2.13    0.04    0.42
  WS02004139WS02001211 CONDUIT    255.98     0  01:36      0.54    0.32    0.61
  WS02004401WS02004402 CONDUIT   1326.75     0  01:39      1.69    1.59    1.00
  WS02004402WS02004403 CONDUIT   1326.65     0  01:39      1.69    1.91    1.00
  WS02004403WS02004404 CONDUIT   1326.72     0  01:39      1.69    0.96    1.00
  WS02004404WS02004405 CONDUIT   1328.31     0  01:39      1.69   13.01    1.00
  WS02004405WS02004406 CONDUIT   1327.46     0  01:39      1.69    2.62    1.00
  WS02004406WS02004407 CONDUIT   1327.01     0  01:39      1.91    0.59    0.99
  WS02004407WS02004409 CONDUIT   1326.72     0  01:39      2.12    0.47    0.99
  WS02004409WS02004410 CONDUIT   1326.76     0  01:39      1.69    1.72    1.00
  WS02004410WS02004411 CONDUIT   1326.97     0  01:39      1.69    1.81    1.00
  WS02004411WS02004412 CONDUIT   1326.72     0  01:39      1.80    1.88    1.00
  WS02004412WS02004413 CONDUIT   1326.70     0  01:39      1.69    0.89    1.00
  WS02004413WS02003067 CONDUIT   1326.81     0  01:39      2.04    0.57    0.77
  WS02006109WS02006110 CONDUIT   1120.33     0  02:04      2.23    2.15    1.00
  WS02006110WS02006113 CONDUIT   1120.51     0  02:03      2.23    1.02    1.00
  WS02006111WS02006112 CONDUIT   1120.74     0  02:03      2.23    0.53    1.00
  WS02006112WS02006115 CONDUIT   1325.74     0  01:38      1.69    0.78    1.00
  WS02006113WS02006111 CONDUIT   1120.51     0  02:04      2.81    1.34    1.00
  WS02006115WS02006116 CONDUIT   1326.44     0  01:39      1.69    1.70    1.00
  WS02006116WS02004401 CONDUIT   1326.07     0  01:39      1.69    1.83    1.00
  WS02006228WS02006109 CONDUIT   1289.92     0  01:37      2.57    5.64    1.00
  WS02006229WS02006228 CONDUIT   1290.39     0  01:37      2.57    4.27    1.00
  WS02006230WS02006229 CONDUIT   1018.54     0  01:37      2.65   22.67    1.00
  WS02006231WS02006230 CONDUIT    566.52     0  03:41      1.47    8.59    1.00
  WS02006232WS02006231 CONDUIT    564.44     0  03:41      1.47    1.18    1.00
  WS02006234WS02006232 CONDUIT    561.65     0  03:41      1.46    1.14    1.00
  WS02006235WS02006234 CONDUIT    556.05     0  03:41      1.44    5.87    1.00
  WS02006238WS02006235 CONDUIT    449.78     0  02:18      1.48    1.00    1.00
  WS02006239WS02006238 CONDUIT    427.98     0  03:34      1.11    1.37    1.00
  WS02006240WS02006239 CONDUIT    428.02     0  03:34      1.11    1.35    1.00
  WS02006242WS02006240 CONDUIT    426.59     0  03:39      1.11    1.69    1.00
  WS02006243WS02006242 CONDUIT    427.55     0  03:37      1.14    0.91    1.00
  WS02006245WS02006243 CONDUIT    429.32     0  03:37      1.15    1.27    1.00
  WS02006247WS02006245 CONDUIT    430.13     0  03:37      1.12    3.41    1.00
  WS02006248WS02006247 CONDUIT    429.67     0  03:37      1.15    0.94    1.00
  WS02006249WS02006248 CONDUIT    429.32     0  03:37      1.12    2.35    1.00
  WS02006251WS02006249 CONDUIT   1369.70     0  01:39      3.56    3.95    1.00
  WS02006252WS02006251 CONDUIT    412.81     0  01:26      4.08    1.52    1.00
  WS02006253WS02006251 CONDUIT   1666.52     0  01:39      4.33    5.00    1.00
  WS02006256WS02006235 CONDUIT    248.78     0  01:23      4.07    2.63    1.00
  WS02006280WS02006229 CONDUIT   2310.39     0  01:37      4.06    0.49    1.00
  WS02006284WS02006280 CONDUIT   2308.22     0  01:37      2.96    0.97    1.00
  WS02006287WS02006284 CONDUIT   2308.47     0  01:37      2.94    1.07    1.00
  WSF200WS02003060     CONDUIT   1340.67     0  01:38      3.02    0.30    0.51
  YS02001580YS02001583 CONDUIT     49.76     0  01:33      0.43    0.19    1.00
  YS02001583YS02001586 CONDUIT     85.09     0  03:06      0.34    0.13    1.00
  YS02001586YS02001590 CONDUIT    332.01     0  02:18      1.24    0.58    1.00
  YS02001590YS02001593 CONDUIT    335.97     0  02:18      1.19    2.11    1.00
  YS02001593YS02001596 CONDUIT    318.65     0  02:18      1.69    0.50    1.00
  YS02001596YS02001600 CONDUIT    318.96     0  02:18      1.23    0.62    1.00
  YS02001600YS02001601 CONDUIT    318.45     0  02:24      1.13    0.55    1.00
  YS02001601YS02001602 CONDUIT    498.99     0  01:33      1.76    1.80    1.00
  YS02001602YS02001605 CONDUIT    498.47     0  01:33      1.76   10.55    1.00
  YS02001605YS02001607 CONDUIT    497.83     0  01:33      1.76    2.73    1.00
  YS02001607YS02001610 CONDUIT    497.83     0  01:33      0.63    0.47    1.00
  YS02001610YS02001613 CONDUIT    620.11     0  02:24      0.79    0.72    1.00
  YS02001613YS02001616 CONDUIT    620.36     0  02:24      0.79    0.53    1.00
  YS02001616YS02001619 CONDUIT    625.45     0  02:24      0.80    1.09    1.00
  YS02001619YS02001622 CONDUIT   1074.78     0  02:18      1.37    1.58    1.00
  YS02001622YS02001625 CONDUIT   1053.67     0  02:16      1.34    0.56    1.00
  YS02001625YS02001629 CONDUIT    875.72     0  01:37      1.11    0.42    1.00
  YS02001629YS02163301 CONDUIT   1138.94     0  02:22      1.45    1.40    1.00
  YS02001633YS02163601 CONDUIT   1183.22     0  01:38      1.51    1.24    1.00
  YS02001641YS02001644 CONDUIT   1184.23     0  01:39      1.51    3.83    1.00
  YS02001644YS02001647 CONDUIT   1454.56     0  01:39      1.94    0.85    1.00
  YS02001647YS02001649 CONDUIT   1469.90     0  01:39      2.14    0.78    1.00
  YS02001649YS02001757 CONDUIT   1687.12     0  01:46      2.28    1.02    1.00
  YS02001652YS02001649 CONDUIT   2429.25     0  02:24      3.09    1.20    1.00
  YS02001655YS02001652 CONDUIT   2435.53     0  02:24      3.10    1.18    1.00
  YS02001658YS02001655 CONDUIT   2731.29     0  02:26      3.48    1.16    1.00
  YS02001661YS02001658 CONDUIT   2783.77     0  02:24      3.54    1.09    1.00
  YS02001664YS02001661 CONDUIT   2783.61     0  02:25      3.54    0.87    1.00
  YS02001745YS02001748 CONDUIT   2070.89     0  02:24      2.64    0.80    1.00
  YS02001748YS02001751 CONDUIT   2079.14     0  02:24      2.65    1.05    1.00
  YS02001751YS02001754 CONDUIT   2085.51     0  02:24      2.66    1.01    1.00
  YS02001754YS02001757 CONDUIT   2089.71     0  02:24      2.66    0.84    1.00
  YS02001757CaochengTiaoxuchi CONDUIT   2694.56     0  01:59      3.43    1.17    1.00
  YS02001759YS02001757 CONDUIT   1498.65     0  02:26      1.91    1.06    1.00
  YS02001762YS02001759 CONDUIT    721.86     0  02:26      0.92    0.83    1.00
  YS02001765YS02001762 CONDUIT    721.57     0  02:26      0.92    0.68    1.00
  YS02001767YS02001765 CONDUIT    721.69     0  02:26      0.92    0.91    1.00
  YS02001770YS02001767 CONDUIT    721.97     0  02:26      0.92    2.86    1.00
  YS02001774YS02001770 CONDUIT   1044.18     0  02:18      1.33    0.67    1.00
  YS02001779YS02001774 CONDUIT    851.70     0  02:17      1.08    0.43    1.00
  YS02001783YS02001784 CONDUIT   1321.64     0  02:24      2.63    1.82    1.00
  YS02001784YS02001785 CONDUIT   1322.86     0  02:24      2.63    3.08    1.00
  YS02001786YS02001788 CONDUIT   1322.85     0  02:24      2.74    2.55    0.92
  YS02001788YS02001790 CONDUIT   1329.22     0  02:22      2.90    0.98    0.87
  YS02001790YS02001791 CONDUIT   1373.12     0  02:25      3.53    1.49    0.73
  YS02001791YS02001793 CONDUIT   1361.68     0  02:23      6.90    0.58    0.45
  YS02001793JiankangQianchi CONDUIT   1360.26     0  02:23      2.71    0.11    0.65
  YS02001882YS02001884 CONDUIT     30.44     0  01:19      0.26    0.03    1.00
  YS02001884YS02001887 CONDUIT     43.06     0  03:04      0.20    0.06    1.00
  YS02001887YS02001890 CONDUIT   2052.03     0  02:27      2.61    3.51    1.00
  YS02001890YS02001895 CONDUIT    529.62     0  02:18      0.67    0.25    1.00
  YS02001895YS02001898 CONDUIT    539.48     0  02:18      0.69    0.94    1.00
  YS02001898YS02001901 CONDUIT    520.21     0  02:18      0.66    0.34    1.00
  YS02001901YS02001904 CONDUIT    518.37     0  02:18      0.66    0.80    1.00
  YS02001904YS02001907 CONDUIT    521.96     0  02:18      0.66    0.18    1.00
  YS02001907YS02006553 CONDUIT   2161.35     0  02:24      2.40    2.54    1.00
  YS02001910YS02001907 CONDUIT   1992.98     0  02:25      2.54    1.12    1.00
  YS02001915YS02001910 CONDUIT   1993.14     0  02:24      2.54    0.99    1.00
  YS02001918YS02001915 CONDUIT   1221.69     0  02:29      1.56    0.67    1.00
  YS02001920YS02001918 CONDUIT   1681.34     0  02:26      2.14    1.63    1.00
  YS02001923YS02001920 CONDUIT   1678.67     0  02:26      2.14    0.75    1.00
  YS02001926YS02001923 CONDUIT   1679.12     0  02:24      2.14    2.40    1.00
  YS02001929YS02001926 CONDUIT   1678.50     0  02:24      2.14    0.80    1.00
  YS02006553YS02006556 CONDUIT   2165.55     0  02:24      2.76    1.85    1.00
  YS02006556YS02006558 CONDUIT   2163.02     0  02:24      2.75    1.71    1.00
  YS02006558YS02006561 CONDUIT   1322.07     0  02:24      4.68    2.92    1.00
  YS02006561YS02001783 CONDUIT   1324.43     0  02:24      2.63    0.69    1.00
  YS02163301YS02001633 CONDUIT   1138.83     0  02:21      1.45    1.07    1.00
  YS02163601YS02164001 CONDUIT   1183.57     0  01:38      1.51    1.05    1.00
  YS02164001YS02001641 CONDUIT   1183.90     0  01:39      1.51    1.62    1.00
  YSB1154YSB6556       CONDUIT    446.40     0  01:39      1.16    0.80    1.00
  YSB1171HS02004479    CONDUIT    532.89     0  01:35      1.06    0.36    1.00
  YSB1174YSB1171       CONDUIT    383.97     0  01:38      1.00    0.59    1.00
  YSB6556YSB1171       CONDUIT    446.26     0  01:39      1.16    0.46    1.00
  CC-R1                PUMP       683.00     0  00:00              1.00
  CC-R2                PUMP       683.00     0  00:00              1.00
  CC-S1                PUMP       200.00     0  00:00              1.00
  CC-S2                PUMP       200.00     0  00:00              1.00
  JK-R1                PUMP      1000.00     0  00:00              1.00
  JK-R2                PUMP      1000.00     0  00:00              1.00
  JK-S                 PUMP       300.00     0  00:00              1.00
  XR-1                 PUMP        95.00     0  00:00              1.00
  XR-2                 PUMP        95.00     0  00:00              1.00
  XR-3                 PUMP        95.00     0  00:00              1.00
  XR-4                 PUMP        95.00     0  00:00              1.00
  
  
  ***************************
  Flow Classification Summary
  ***************************
  
  -------------------------------------------------------------------------------------
                      Adjusted    ---------- Fraction of Time in Flow Class ---------- 
                       /Actual         Up    Down  Sub   Sup   Up    Down  Norm  Inlet 
  Conduit               Length    Dry  Dry   Dry   Crit  Crit  Crit  Crit  Ltd   Ctrl  
  -------------------------------------------------------------------------------------
  1                       1.00   0.00  0.00  0.00  0.00  1.00  0.00  0.00  0.36  0.00
  HS02004478WS02006287    1.00   0.07  0.00  0.00  0.61  0.32  0.00  0.00  0.59  0.00
  HS02004479HS02004480    1.00   0.02  0.00  0.00  0.98  0.00  0.00  0.00  0.11  0.00
  HS02004480HS02004478    1.00   0.05  0.00  0.00  0.53  0.00  0.00  0.42  0.00  0.00
  HS02004770HS02004777    1.00   0.00  0.05  0.00  0.95  0.00  0.00  0.00  0.02  0.00
  HS02004777HS02004785    1.00   0.00  0.00  0.00  1.00  0.00  0.00  0.00  0.11  0.00
  HS02004785HS02004788    1.00   0.00  0.00  0.00  1.00  0.00  0.00  0.00  0.00  0.00
  HS02004788HS02004792    1.00   0.00  0.00  0.00  1.00  0.00  0.00  0.00  0.89  0.00
  HS02004792HS02004799    1.00   0.00  0.00  0.00  1.00  0.00  0.00  0.00  0.84  0.00
  HS02004799HS02004480    1.00   0.00  0.01  0.00  0.93  0.00  0.05  0.00  0.00  0.00
  HS02004802HS02004478    1.00   0.05  0.00  0.00  0.95  0.00  0.00  0.00  0.02  0.00
  HS02004807HS02004802    1.00   0.05  0.00  0.00  0.95  0.00  0.00  0.01  0.00  0.00
  HS02004817HS02004807    1.00   0.00  0.05  0.00  0.95  0.00  0.00  0.00  0.01  0.00
  HS02004817HS02004824    1.00   0.00  0.00  0.00  1.00  0.00  0.00  0.00  0.79  0.00
  HS02004824HS02004830    1.00   0.00  0.00  0.00  1.00  0.00  0.00  0.00  0.00  0.00
  HS02004830HS02004837    1.00   0.00  0.00  0.00  1.00  0.00  0.00  0.00  0.87  0.00
  HS02004837HS02004842    1.00   0.00  0.00  0.00  1.00  0.00  0.00  0.00  0.11  0.00
  HS02004842HS02004848    1.00   0.00  0.05  0.00  0.95  0.00  0.00  0.00  0.57  0.00
  HS02004848HS02004852    1.00   0.05  0.00  0.00  0.95  0.00  0.00  0.00  0.70  0.00
  HS02004852HS02004856    1.00   0.05  0.00  0.00  0.95  0.00  0.00  0.00  0.65  0.00
  HS02004856HS02004862    1.00   0.00  0.08  0.00  0.92  0.00  0.00  0.00  0.74  0.00
  HS02004862HS02004870    1.00   0.00  0.00  0.00  1.00  0.00  0.00  0.00  0.02  0.00
  HS02004870HS02004876    1.00   0.00  0.00  0.00  0.99  0.00  0.00  0.00  0.84  0.00
  HS02004876HS02004881    1.00   0.01  0.00  0.00  0.75  0.24  0.00  0.00  0.00  0.00
  HS02004881HS02006253    1.00   0.02  0.00  0.00  0.61  0.00  0.00  0.36  0.27  0.00
  HS02004901HS02004770    1.00   0.05  0.00  0.00  0.95  0.00  0.00  0.00  0.00  0.00
  WS02001211WS02001212    1.00   0.00  0.01  0.00  0.99  0.00  0.00  0.00  0.00  0.00
  WS02001212WS02001213    1.00   0.01  0.00  0.00  0.52  0.00  0.47  0.00  0.00  0.00
  WS02001213WS02003059    1.00   0.00  0.00  0.00  1.00  0.00  0.00  0.00  0.00  0.00
[...]
  WS02006284WS02006280    1.00   0.05  0.00  0.00  0.18  0.02  0.00  0.75  0.00  0.00
  WS02006287WS02006284    1.00   0.04  0.03  0.00  0.50  0.43  0.00  0.00  0.65  0.00
  WSF200WS02003060        1.00   0.00  0.19  0.00  0.30  0.51  0.00  0.00  0.45  0.00
  YS02001580YS02001583    1.00   0.18  0.36  0.00  0.46  0.00  0.00  0.00  0.60  0.00
  YS02001583YS02001586    1.00   0.24  0.24  0.00  0.51  0.00  0.01  0.00  0.60  0.00
  YS02001586YS02001590    1.00   0.05  0.00  0.00  0.70  0.02  0.00  0.23  0.29  0.00
  YS02001590YS02001593    1.00   0.05  0.00  0.00  0.36  0.00  0.59  0.00  0.00  0.00
  YS02001593YS02001596    1.00   0.05  0.00  0.00  0.41  0.01  0.00  0.52  0.02  0.00
  YS02001596YS02001600    1.00   0.05  0.00  0.00  0.52  0.01  0.00  0.43  0.03  0.00
  YS02001600YS02001601    1.00   0.05  0.00  0.00  0.95  0.00  0.00  0.00  0.55  0.00
  YS02001601YS02001602    1.00   0.05  0.00  0.00  0.95  0.00  0.00  0.00  0.00  0.00
  YS02001602YS02001605    1.00   0.05  0.00  0.00  0.95  0.00  0.00  0.00  0.00  0.00
  YS02001605YS02001607    1.00   0.05  0.00  0.00  0.95  0.00  0.00  0.00  0.00  0.00
  YS02001607YS02001610    1.00   0.05  0.00  0.00  0.95  0.00  0.00  0.00  0.00  0.00
  YS02001610YS02001613    1.00   0.05  0.00  0.00  0.95  0.00  0.00  0.00  0.00  0.00
  YS02001613YS02001616    1.00   0.05  0.00  0.00  0.95  0.00  0.00  0.00  0.00  0.00
  YS02001616YS02001619    1.00   0.05  0.00  0.00  0.95  0.00  0.00  0.00  0.00  0.00
  YS02001619YS02001622    1.00   0.05  0.00  0.00  0.94  0.01  0.00  0.00  0.30  0.00
  YS02001622YS02001625    1.00   0.05  0.00  0.00  0.95  0.00  0.00  0.00  0.01  0.00
  YS02001625YS02001629    1.00   0.05  0.01  0.00  0.48  0.00  0.47  0.00  0.00  0.00
  YS02001629YS02163301    1.00   0.05  0.00  0.00  0.95  0.00  0.00  0.00  0.00  0.00
  YS02001633YS02163601    1.00   0.00  0.00  0.00  1.00  0.00  0.00  0.00  0.13  0.00
  YS02001641YS02001644    1.00   0.00  0.00  0.00  1.00  0.00  0.00  0.00  0.00  0.00
  YS02001644YS02001647    1.00   0.00  0.05  0.00  0.95  0.00  0.00  0.00  0.00  0.00
  YS02001647YS02001649    1.00   0.00  0.05  0.00  0.79  0.16  0.00  0.00  0.55  0.00
  YS02001649YS02001757    1.00   0.00  0.00  0.00  0.77  0.23  0.00  0.00  0.40  0.00
  YS02001652YS02001649    1.00   0.00  0.00  0.00  0.99  0.01  0.00  0.00  0.65  0.00
  YS02001655YS02001652    1.00   0.00  0.00  0.00  0.50  0.01  0.00  0.49  0.04  0.00
  YS02001658YS02001655    1.00   0.00  0.05  0.00  0.78  0.18  0.00  0.00  0.57  0.00
  YS02001661YS02001658    1.00   0.05  0.00  0.00  0.63  0.32  0.00  0.00  0.60  0.00
  YS02001664YS02001661    1.00   0.05  0.00  0.00  0.78  0.18  0.00  0.00  0.75  0.00
  YS02001745YS02001748    1.00   0.00  0.00  0.00  0.36  0.01  0.00  0.64  0.04  0.00
  YS02001748YS02001751    1.00   0.00  0.00  0.00  0.84  0.16  0.00  0.00  0.68  0.00
  YS02001751YS02001754    1.00   0.00  0.00  0.00  0.45  0.02  0.00  0.53  0.03  0.00
  YS02001754YS02001757    1.00   0.00  0.00  0.00  1.00  0.00  0.00  0.00  0.69  0.00
  YS02001757CaochengTiaoxuchi    1.00   0.00  0.00  0.00  1.00  0.00  0.00  0.00  0.57  0.00
  YS02001759YS02001757    1.00   0.00  0.00  0.00  1.00  0.00  0.00  0.00  0.64  0.00
  YS02001762YS02001759    1.00   0.00  0.00  0.00  1.00  0.00  0.00  0.00  0.01  0.00
  YS02001765YS02001762    1.00   0.00  0.00  0.00  1.00  0.00  0.00  0.00  0.64  0.00
  YS02001767YS02001765    1.00   0.00  0.00  0.00  1.00  0.00  0.00  0.00  0.00  0.00
  YS02001770YS02001767    1.00   0.00  0.00  0.00  1.00  0.00  0.00  0.00  0.00  0.00
  YS02001774YS02001770    1.00   0.00  0.05  0.00  0.80  0.00  0.15  0.00  0.01  0.00
  YS02001779YS02001774    1.00   0.00  0.00  0.00  1.00  0.00  0.00  0.00  0.67  0.00
  YS02001783YS02001784    1.00   0.00  0.06  0.00  0.94  0.00  0.00  0.00  0.55  0.00
  YS02001784YS02001785    1.00   0.00  0.00  0.00  1.00  0.00  0.00  0.00  0.14  0.00
  YS02001786YS02001788    1.00   0.00  0.00  0.00  0.70  0.30  0.00  0.00  0.00  0.00
  YS02001788YS02001790    1.00   0.00  0.00  0.00  0.16  0.84  0.00  0.00  0.75  0.00
  YS02001790YS02001791    1.00   0.00  0.00  0.00  0.01  0.99  0.00  0.00  0.11  0.00
  YS02001791YS02001793    1.00   0.00  0.00  0.00  0.00  1.00  0.00  0.00  0.02  0.00
  YS02001793JiankangQianchi    1.00   0.00  0.00  0.00  0.84  0.16  0.00  0.00  0.96  0.00
  YS02001882YS02001884    1.00   0.05  0.00  0.00  0.95  0.00  0.00  0.00  0.00  0.00
  YS02001884YS02001887    1.00   0.02  0.02  0.00  0.96  0.00  0.00  0.00  0.00  0.00
  YS02001887YS02001890    1.00   0.00  0.00  0.00  0.99  0.00  0.01  0.00  0.00  0.00
  YS02001890YS02001895    1.00   0.00  0.05  0.00  0.95  0.00  0.00  0.00  0.00  0.00
  YS02001895YS02001898    1.00   0.05  0.00  0.00  0.94  0.00  0.00  0.00  0.00  0.00
  YS02001898YS02001901    1.00   0.05  0.00  0.00  0.95  0.00  0.00  0.00  0.00  0.00
  YS02001901YS02001904    1.00   0.05  0.00  0.00  0.95  0.00  0.00  0.00  0.00  0.00
  YS02001904YS02001907    1.00   0.00  0.05  0.00  0.95  0.00  0.00  0.00  0.00  0.00
  YS02001907YS02006553    1.00   0.00  0.01  0.00  0.99  0.00  0.00  0.00  0.00  0.00
  YS02001910YS02001907    1.00   0.00  0.00  0.00  0.99  0.00  0.00  0.01  0.11  0.00
  YS02001915YS02001910    1.00   0.00  0.00  0.00  0.99  0.01  0.00  0.00  0.11  0.00
  YS02001918YS02001915    1.00   0.00  0.00  0.00  0.99  0.01  0.00  0.00  0.65  0.00
  YS02001920YS02001918    1.00   0.00  0.00  0.00  1.00  0.00  0.00  0.00  0.00  0.00
  YS02001923YS02001920    1.00   0.00  0.00  0.00  1.00  0.00  0.00  0.00  0.82  0.00
  YS02001926YS02001923    1.00   0.00  0.03  0.00  0.22  0.00  0.75  0.00  0.00  0.00
  YS02001929YS02001926    1.00   0.00  0.05  0.00  0.95  0.00  0.00  0.00  0.73  0.00
  YS02006553YS02006556    1.00   0.01  0.00  0.00  0.99  0.00  0.00  0.00  0.03  0.00
  YS02006556YS02006558    1.00   0.00  0.00  0.00  1.00  0.00  0.00  0.00  0.00  0.00
  YS02006558YS02006561    1.00   0.06  0.00  0.00  0.21  0.74  0.00  0.00  0.11  0.00
  YS02006561YS02001783    1.00   0.06  0.00  0.00  0.29  0.65  0.00  0.00  0.62  0.00
  YS02163301YS02001633    1.00   0.00  0.05  0.00  0.95  0.00  0.00  0.00  0.00  0.00
  YS02163601YS02164001    1.00   0.00  0.03  0.00  0.97  0.00  0.00  0.00  0.00  0.00
  YS02164001YS02001641    1.00   0.00  0.03  0.00  0.97  0.00  0.00  0.00  0.05  0.00
  YSB1154YSB6556          1.00   0.05  0.00  0.00  0.95  0.00  0.00  0.00  0.01  0.00
  YSB1171HS02004479       1.00   0.02  0.00  0.00  0.98  0.00  0.00  0.00  0.10  0.00
  YSB1174YSB1171          1.00   0.02  0.02  0.00  0.96  0.00  0.00  0.00  0.00  0.00
  YSB6556YSB1171          1.00   0.02  0.03  0.00  0.95  0.00  0.00  0.00  0.00  0.00
  
  
  *************************
  Conduit Surcharge Summary
  *************************
  
  ----------------------------------------------------------------------------
                                                           Hours        Hours 
                         --------- Hours Full --------   Above Full   Capacity
  Conduit                Both Ends  Upstream  Dnstream   Normal Flow   Limited
  ----------------------------------------------------------------------------
  HS02004478WS02006287        0.58      0.58      0.76      0.01         0.01
  HS02004479HS02004480        0.77      0.77      0.79      0.01         0.01
  HS02004480HS02004478        0.69      0.77      0.69      1.80         0.69
  HS02004770HS02004777        0.67      0.68      0.68      0.11         0.08
  HS02004777HS02004785        0.62      0.62      0.68      0.01         0.01
  HS02004785HS02004788        0.61      0.62      0.61      1.64         0.55
  HS02004788HS02004792        0.61      0.61      0.74      0.01         0.01
  HS02004792HS02004799        0.74      0.74      0.86      0.01         0.01
  HS02004799HS02004480        0.77      0.77      0.86      0.99         0.01
  HS02004802HS02004478        0.70      0.70      0.78      0.14         0.01
  HS02004807HS02004802        0.74      0.74      0.77      0.30         0.30
  HS02004817HS02004807        0.74      0.74      1.41      0.01         0.01
  HS02004817HS02004824        0.61      0.61      1.41      0.01         0.01
  HS02004824HS02004830        0.58      0.58      0.61      0.01         0.01
  HS02004830HS02004837        0.53      0.53      0.58      0.01         0.01
  HS02004837HS02004842        0.53      0.53      0.67      0.01         0.01
  HS02004842HS02004848        0.51      0.51      0.67      0.01         0.01
  HS02004848HS02004852        0.50      0.51      0.53      0.02         0.01
  HS02004852HS02004856        0.53      0.53      0.55      0.02         0.01
  HS02004856HS02004862        0.51      0.52      0.55      0.01         0.01
  HS02004862HS02004870        0.55      0.55      0.58      0.26         0.25
  HS02004870HS02004876        0.58      0.58      0.65      0.01         0.01
  HS02004876HS02004881        0.63      0.65      0.63      1.65         0.63
  HS02004881HS02006253        0.63      0.63      2.46      0.01         0.01
  HS02004901HS02004770        0.68      0.68      0.68      0.01         0.01
  WS02003072WS02003073        0.01      0.01      0.01      2.91         0.01
  WS02004401WS02004402        1.77      1.77      1.78      1.65         1.61
  WS02004402WS02004403        1.78      1.78      1.78      1.78         1.76
  WS02004403WS02004404        1.78      1.78      1.93      0.01         0.03
  WS02004404WS02004405        1.89      1.93      1.89      3.10         1.89
  WS02004405WS02004406        1.86      1.89      1.86      2.46         1.86
  WS02004406WS02004407        0.01      0.01      1.86      0.01         0.01
  WS02004407WS02004409        0.01      0.01      1.15      0.01         0.01
  WS02004409WS02004410        1.08      1.15      1.08      1.72         1.07
  WS02004410WS02004411        1.00      1.08      1.00      1.76         1.00
  WS02004411WS02004412        0.88      1.00      0.88      1.77         0.88
  WS02004412WS02004413        0.88      0.88      1.58      0.01         0.01
  WS02004413WS02003067        0.01      0.01      1.58      0.01         0.01
  WS02006109WS02006110        2.39      2.39      2.81      2.43         0.01
  WS02006110WS02006113        1.53      1.53      2.81      0.29         0.01
  WS02006111WS02006112        1.51      1.51      2.87      0.01         0.01
  WS02006112WS02006115        1.73      1.73      2.50      0.01         0.01
  WS02006113WS02006111        1.52      1.53      1.52      1.67         1.52
  WS02006115WS02006116        1.75      1.75      1.75      1.75         1.70
  WS02006116WS02004401        1.77      1.77      1.77      1.80         1.76
  WS02006228WS02006109        2.80      2.81      2.80      2.91         2.80
  WS02006229WS02006228        2.79      2.80      2.79      2.86         2.79
  WS02006230WS02006229        2.82      2.84      2.82      2.99         1.69
  WS02006231WS02006230        2.21      2.21      2.43      2.87         1.12
  WS02006232WS02006231        2.39      2.39      2.77      0.21         0.18
  WS02006234WS02006232        2.72      2.72      2.77      0.20         0.22
  WS02006235WS02006234        2.69      2.69      2.72      2.78         1.12
  WS02006238WS02006235        2.73      2.73      2.76      0.01         0.48
  WS02006239WS02006238        2.75      2.75      2.75      1.92         0.87
  WS02006240WS02006239        2.72      2.73      2.72      1.77         0.78
  WS02006242WS02006240        2.73      2.73      2.75      2.02         1.05
  WS02006243WS02006242        2.72      2.72      2.74      0.01         0.03
  WS02006245WS02006243        2.71      2.72      2.72      0.75         0.71
  WS02006247WS02006245        2.71      2.72      2.71      2.54         1.26
  WS02006248WS02006247        2.70      2.70      2.72      0.01         0.05
  WS02006249WS02006248        2.70      2.70      2.70      1.26         0.01
  WS02006251WS02006249        2.70      2.70      2.70      2.68         2.68
  WS02006252WS02006251        2.69      2.69      2.69      2.35         0.07
  WS02006253WS02006251        2.69      2.70      2.70      0.89         0.01
  WS02006256WS02006235        2.97      2.98      4.24      1.10         0.01
  WS02006280WS02006229        0.91      0.91      1.07      0.01         0.01
  WS02006284WS02006280        0.79      0.79      0.88      0.01         0.01
  WS02006287WS02006284        0.69      0.69      0.80      0.33         0.33
  YS02001580YS02001583        1.46      1.46      1.52      0.01         0.01
  YS02001583YS02001586        1.47      1.47      1.60      0.01         0.01
  YS02001586YS02001590        1.60      1.60      1.68      0.01         0.01
  YS02001590YS02001593        1.68      1.68      1.71      1.66         0.01
  YS02001593YS02001596        1.69      1.69      1.81      0.01         0.01
  YS02001596YS02001600        1.86      1.86      1.96      0.01         0.01
  YS02001600YS02001601        2.00      2.00      2.21      0.01         0.01
  YS02001601YS02001602        2.14      2.14      2.23      1.92         0.01
  YS02001602YS02001605        2.11      2.11      2.14      2.69         0.01
  YS02001605YS02001607        2.08      2.11      2.10      2.07         1.98
  YS02001607YS02001610        1.70      1.70      1.72      0.01         0.01
  YS02001610YS02001613        1.69      1.69      1.72      0.01         0.01
  YS02001613YS02001616        1.65      1.65      1.69      0.01         0.01
  YS02001616YS02001619        1.64      1.64      1.65      0.48         0.38
  YS02001619YS02001622        1.64      1.64      1.64      1.61         1.47
  YS02001622YS02001625        1.64      1.64      1.85      0.01         0.01
  YS02001625YS02001629        1.55      1.55      1.85      0.01         0.01
  YS02001629YS02163301        1.86      1.86      1.88      0.43         0.13
  YS02001633YS02163601        1.91      1.91      1.97      0.26         0.28
  YS02001641YS02001644        1.83      1.87      1.83      2.25         1.73
  YS02001644YS02001647        1.60      1.60      1.83      0.01         0.01
  YS02001647YS02001649        1.60      1.60      1.75      0.01         0.01
  YS02001649YS02001757        1.75      1.75      1.84      0.03         0.07
  YS02001652YS02001649        1.59      1.59      1.75      0.17         0.17
  YS02001655YS02001652        1.37      1.37      1.57      0.16         0.16
  YS02001658YS02001655        1.11      1.11      1.37      0.12         0.12
  YS02001661YS02001658        0.49      0.49      1.11      0.10         0.10
  YS02001664YS02001661        0.26      0.26      0.61      0.01         0.01
  YS02001745YS02001748        0.26      0.26      0.94      0.01         0.01
  YS02001748YS02001751        1.08      1.08      1.28      0.03         0.03
  YS02001751YS02001754        1.28      1.28      1.51      0.01         0.01
  YS02001754YS02001757        1.55      1.55      1.84      0.01         0.01
  YS02001757CaochengTiaoxuchi        1.84      1.84      2.44      0.78         0.78
  YS02001759YS02001757        1.75      1.75      1.84      0.10         0.05
  YS02001762YS02001759        1.71      1.71      1.75      0.01         0.01
  YS02001765YS02001762        1.68      1.68      1.71      0.01         0.01
  YS02001767YS02001765        1.65      1.65      1.68      0.01         0.01
  YS02001770YS02001767        1.65      1.65      1.65      1.16         0.90
  YS02001774YS02001770        1.63      1.63      1.71      0.01         0.01
  YS02001779YS02001774        1.49      1.49      1.71      0.01         0.01
  YS02001783YS02001784        1.26      1.30      1.26      1.54         1.26
  YS02001784YS02001785        1.09      1.26      1.09      1.74         1.09
  YS02001786YS02001788        0.01      1.09      0.01      1.67         0.01
  YS02001790YS02001791        0.01      0.01      0.01      1.23         0.01
  YS02001793JiankangQianchi        0.01      0.01      7.99      0.01         0.01
  YS02001882YS02001884        1.20      1.20      1.22      0.01         0.01
  YS02001884YS02001887        1.26      1.26      1.28      0.01         0.01
  YS02001887YS02001890        1.30      1.30      1.32      0.53         0.01
  YS02001890YS02001895        1.19      1.19      1.35      0.01         0.01
  YS02001895YS02001898        1.18      1.18      1.19      0.01         0.01
  YS02001898YS02001901        1.19      1.19      1.26      0.01         0.01
  YS02001901YS02001904        1.24      1.24      1.26      0.01         0.01
  YS02001904YS02001907        1.24      1.24      1.65      0.01         0.01
  YS02001907YS02006553        1.75      1.75      1.78      0.22         0.22
  YS02001910YS02001907        1.35      1.35      1.63      0.34         0.34
  YS02001915YS02001910        1.20      1.20      1.35      0.01         0.04
  YS02001918YS02001915        1.06      1.06      1.20      0.01         0.01
  YS02001920YS02001918        1.06      1.06      1.08      0.22         0.01
  YS02001923YS02001920        1.01      1.01      1.08      0.01         0.01
  YS02001926YS02001923        0.50      0.50      0.54      0.31         0.01
  YS02001929YS02001926        0.36      0.36      0.54      0.01         0.01
  YS02006553YS02006556        1.48      1.48      1.64      0.18         0.18
  YS02006556YS02006558        1.58      1.58      1.67      0.16         0.01
  YS02006558YS02006561        1.12      1.46      1.12      1.72         1.12
  YS02006561YS02001783        1.02      1.02      1.30      0.01         0.01
  YS02163301YS02001633        1.88      1.88      1.93      0.24         0.01
  YS02163601YS02164001        1.86      1.86      1.97      0.13         0.01
  YS02164001YS02001641        1.86      1.86      1.87      0.85         0.80
  YSB1154YSB6556              0.82      0.82      1.00      0.01         0.01
  YSB1171HS02004479           0.72      0.72      1.01      0.01         0.01
  YSB1174YSB1171              0.89      0.89      1.31      0.01         0.01
  YSB6556YSB1171              0.82      0.82      1.51      0.01         0.01
  
  
  ***************
  Pumping Summary
  ***************
  
  ---------------------------------------------------------------------------------------------------------
                                                  Min       Avg       Max     Total     Power    % Time Off
                        Percent   Number of      Flow      Flow      Flow    Volume     Usage    Pump Curve
  Pump                 Utilized   Start-Ups       LPS       LPS       LPS  10^6 ltr     Kw-hr    Low   High
  ---------------------------------------------------------------------------------------------------------
  CC-R1                   32.08           2      0.00    683.00    683.00     6.310    124.16    0.0   47.6
  CC-R2                   30.09           2      0.00    683.00    683.00     5.920    116.95    0.0   50.7
  CC-S1                   36.56           2      0.00    200.00    200.00     2.106     11.45    0.0   33.3
  CC-S2                   33.62           2      0.00    200.00    200.00     1.937     10.42    0.0   36.3
  JK-R1                   16.84         112      0.00   1000.00   1000.00     4.850     40.84    0.0    0.0
  JK-R2                    0.07           1      0.00   1000.00   1000.00     0.021      0.19    0.0    0.0
  JK-S                    24.52          11      0.00    300.00    300.00     2.118     34.57    0.0    0.0
  XR-1                    97.90           2      0.00     95.00     95.00     2.678      9.62    0.0    0.0
  XR-2                    93.97           2      0.00     95.00     95.00     2.571      8.79    0.0    0.0
  XR-3                     0.00           1      0.00     95.00     95.00     0.000      0.00    0.0    0.0
  XR-4                     0.00           1      0.00     95.00     95.00     0.000      0.00    0.0    0.0
  

  Analysis begun on:  Wed Aug  2 16:10:00 2023
  Analysis ended on:  Wed Aug  2 16:11:31 2023
  Total elapsed time: 00:01:31