
  OWA STORM WATER MANAGEMENT MODEL - VERSION v5.1.14 (OWA 2022-07-31)
  --------------------------------------------------------------

  WARNING 04: minimum elevation drop used for Conduit WS02004404WS02004405
  WARNING 03: negative offset ignored for Link YS02001904YS02001907
  
  *********************************************************
  NOTE: The summary statistics displayed in this report are
  based on results found at every computational time step,  
  not just on results from each reporting time step.
  *********************************************************
  
  ****************
  Analysis Options
  ****************
  Flow Units ............... LPS
  Process Models:
    Rainfall/Runoff ........ YES
    RDII ................... NO
    Snowmelt ............... NO
    Groundwater ............ NO
    Flow Routing ........... YES
    Ponding Allowed ........ NO
    Water Quality .......... NO
  Infiltration Method ...... HORTON
  Flow Routing Method ...... DYNWAVE
  Surcharge Method ......... EXTRAN
  Starting Date ............ 08/28/2015 08:00:00
  Ending Date .............. 08/28/2015 16:00:00
  Antecedent Dry Days ...... 8.0
  Report Time Step ......... 00:01:00
  Wet Time Step ............ 00:01:00
  Dry Time Step ............ 00:01:00
  Routing Time Step ........ 30.00 sec
  Variable Time Step ....... YES
  Maximum Trials ........... 8
  Number of Threads ........ 4
  Head Tolerance ........... 0.001500 m
  
  
  **************************        Volume         Depth
  Runoff Quantity Continuity     hectare-m            mm
  **************************     ---------       -------
  Initial LID Storage ......         0.072         1.184
  Total Precipitation ......        13.233       218.441
  Evaporation Loss .........         0.000         0.000
  Infiltration Loss ........         0.217         3.582
  Surface Runoff ...........        11.701       193.154
  Final Storage ............         1.390        22.949
  Continuity Error (%) .....        -0.027
  
  
  **************************        Volume        Volume
  Flow Routing Continuity        hectare-m      10^6 ltr
  **************************     ---------     ---------
  Dry Weather Inflow .......         0.630         6.296
  Wet Weather Inflow .......        11.701       117.008
  Groundwater Inflow .......         0.000         0.000
  RDII Inflow ..............         0.000         0.000
  External Inflow ..........         0.105         1.045
  External Outflow .........         3.454        34.538
  Flooding Loss ............         8.936        89.357
  Evaporation Loss .........         0.000         0.000
  Exfiltration Loss ........         0.000         0.000
  Initial Stored Volume ....         0.303         3.031
  Final Stored Volume ......         0.355         3.554
  Continuity Error (%) .....        -0.054
  
  
  *************************
  Highest Continuity Errors
  *************************
  Node YS02001884 (4.59%)
  Node YS02001583 (-3.06%)
  Node HS02004842 (1.41%)
  
  
  ***************************
  Time-Step Critical Elements
  ***************************
  Link WS02006280WS02006229 (42.94%)
  Link YS02001791YS02001793 (16.40%)
  Link WS02006252WS02006251 (8.75%)
  Link WS02004404WS02004405 (7.40%)
  Link WS02006238WS02006235 (5.34%)
  
  
  ********************************
  Highest Flow Instability Indexes
  ********************************
  Link WS02006238WS02006235 (41)
  Link YS02001602YS02001605 (37)
  Link WS02006252WS02006251 (37)
  Link YS02001605YS02001607 (36)
  Link YS02001607YS02001610 (34)
  
  
  *************************
  Routing Time Step Summary
  *************************
  Minimum Time Step           :     0.00 sec
  Average Time Step           :     2.64 sec
  Maximum Time Step           :    16.89 sec
  Percent in Steady State     :     0.00
  Average Iterations per Step :     4.25
  Percent Not Converging      :    22.57
  
  
  ***************************
  Subcatchment Runoff Summary
  ***************************
  
  ------------------------------------------------------------------------------------------------------------------------------
                            Total      Total      Total      Total     Imperv       Perv      Total       Total     Peak  Runoff
                           Precip      Runon       Evap      Infil     Runoff     Runoff     Runoff      Runoff   Runoff   Coeff
  Subcatchment                 mm         mm         mm         mm         mm         mm         mm    10^6 ltr      LPS
  ------------------------------------------------------------------------------------------------------------------------------
  sub0                      99.63       0.00       0.00       1.04      91.43       5.94      97.37        0.08    54.45   0.977
  sub1                      99.63       0.00       0.00       1.57      78.38       8.25      86.63        0.58   327.46   0.870
  sub10                     99.63       0.00       0.00       1.00      73.44       5.47      78.92        0.87   516.87   0.792
  sub11                     99.63       0.00       0.00       0.92      68.25       5.10      73.35        0.85   542.20   0.736
  sub12                     99.63       0.00       0.00       1.61      69.38       8.91      78.29        0.68   462.28   0.786
  sub14                     99.63       0.00       0.00       1.00      64.64       5.49      70.13        0.67   417.72   0.704
  sub15                     99.63       0.00       0.00       4.48      58.12      20.78      78.89        1.36   714.15   0.792
  sub16                     99.63       0.00       0.00       4.78      56.68      23.52      80.20        0.84   483.18   0.805
  sub17                     99.63       0.00       0.00       5.11      62.56      24.74      87.29        0.75   419.25   0.876
  sub2                      99.63       0.00       0.00       7.01      57.30      27.13      84.43        0.79   334.99   0.847
  sub22                     99.63       0.00       0.00       7.89      54.25      33.60      87.85        5.55  2589.25   0.882
  sub23                     99.63       0.00       0.00       5.96      55.86      27.30      83.16        3.97  2047.39   0.835
  sub3                      99.63       0.00       0.00       7.51      56.76      26.33      83.09        1.87   721.58   0.834
  sub4                      99.63       0.00       0.00       1.70      77.26       8.00      85.26        1.78   782.17   0.856
  sub5                      99.63       0.00       0.00       0.90      75.82       4.89      80.71        0.91   531.62   0.810
  sub60                    316.61       0.00       0.00       1.49     214.17      27.84     283.23        3.72  3170.84   0.895
  sub61                    316.61       0.00       0.00       2.30     213.97      41.71     288.65        5.30  4396.91   0.912
  sub62                    316.61       0.00       0.00       1.01     228.17      18.92     285.64        7.83  6433.88   0.902
  sub63                    316.61       0.00       0.00       4.29     183.27      70.89     286.93        6.51  5268.51   0.906
  sub64                    316.61       0.00       0.00       2.05     208.77      34.96     283.64        6.81  5513.80   0.896
  sub65                    316.61       0.00       0.00       1.88     225.38      31.95     289.53        7.97  6186.52   0.914
  sub66                    316.61       0.00       0.00       5.14     177.44      67.67     282.51       13.17  9635.15   0.892
  sub67                    316.61       0.00       0.00       0.99     233.84      19.43     288.32        5.36  4566.07   0.911
  sub68                    316.61       0.00       0.00       1.77     206.56      32.00     281.60        7.75  6549.74   0.889
  sub69                    316.61       0.00       0.00       1.69     213.21      35.95     286.67       10.61  8339.22   0.905
  sub7                      99.63       0.00       0.00       1.06      69.28       5.89      75.17        0.25   163.59   0.755
  sub70                    316.61       0.00       0.00       5.89     170.99      82.25     285.99        8.26  5611.68   0.903
  sub71                    316.61       0.00       0.00       0.94     207.33      17.17     276.01        7.22  6062.16   0.872
  sub72                    316.61       0.00       0.00       0.90     224.09      16.05     282.68        3.89  3056.34   0.893
  sub8                      99.63       0.00       0.00       1.04      67.33       5.72      73.05        0.47   293.77   0.733
  sub9                      99.63       0.00       0.00       1.01      65.27       5.54      70.81        0.34   214.00   0.711
  

  ***********************
  LID Performance Summary
  ***********************

  --------------------------------------------------------------------------------------------------------------------
                                         Total      Evap     Infil   Surface    Drain    Initial     Final  Continuity
                                        Inflow      Loss      Loss   Outflow   Outflow   Storage   Storage       Error
  Subcatchment      LID Control             mm        mm        mm        mm        mm        mm        mm           %
  --------------------------------------------------------------------------------------------------------------------
  sub1              GreenRoof            99.63      0.00      0.00      0.00      0.00      7.05    106.68       -0.00
  sub10             GreenRoof            99.63      0.00      0.00      0.00      0.00      7.05    106.68       -0.00
  sub11             GreenRoof            99.63      0.00      0.00      0.00      0.00      7.05    106.68       -0.00
  sub12             GreenRoof            99.63      0.00      0.00      0.00      0.00      7.05    106.68       -0.00
  sub14             GreenRoof            99.63      0.00      0.00      0.00      0.00      7.05    106.68       -0.00
  sub15             GreenRoof            99.63      0.00      0.00      0.00      0.00      7.05    106.68       -0.00
  sub16             GreenRoof            99.63      0.00      0.00      0.00      0.00      7.05    106.68       -0.00
  sub17             GreenRoof            99.63      0.00      0.00      0.00      0.00      7.05    106.68       -0.00
  sub2              GreenRoof            99.63      0.00      0.00      0.00      0.00      7.05    106.68       -0.00
  sub22             GreenRoof            99.63      0.00      0.00      0.00      0.00      7.05    106.68       -0.00
  sub23             GreenRoof            99.63      0.00      0.00      0.00      0.00      7.05    106.68       -0.00
  sub3              GreenRoof            99.63      0.00      0.00      0.00      0.00      7.05    106.68       -0.00
  sub4              GreenRoof            99.63      0.00      0.00      0.00      0.00      7.05    106.68       -0.00
  sub5              GreenRoof            99.63      0.00      0.00      0.00      0.00      7.05    106.68       -0.00
  sub60             GreenRoof           316.61      0.00      0.00    180.56      0.00      7.05    143.11        0.00
  sub61             GreenRoof           316.61      0.00      0.00    180.56      0.00      7.05    143.11        0.00
  sub62             GreenRoof           316.61      0.00      0.00    180.56      0.00      7.05    143.11        0.00
  sub63             GreenRoof           316.61      0.00      0.00    180.56      0.00      7.05    143.11        0.00
  sub64             GreenRoof           316.61      0.00      0.00    180.56      0.00      7.05    143.11        0.00
  sub65             GreenRoof           316.61      0.00      0.00    180.56      0.00      7.05    143.11        0.00
  sub66             GreenRoof           316.61      0.00      0.00    180.56      0.00      7.05    143.11        0.00
  sub67             GreenRoof           316.61      0.00      0.00    180.56      0.00      7.05    143.11        0.00
  sub68             GreenRoof           316.61      0.00      0.00    180.56      0.00      7.05    143.11        0.00
  sub69             GreenRoof           316.61      0.00      0.00    180.56      0.00      7.05    143.11        0.00
  sub7              GreenRoof            99.63      0.00      0.00      0.00      0.00      7.05    106.68       -0.00
  sub70             GreenRoof           316.61      0.00      0.00    180.56      0.00      7.05    143.11        0.00
  sub71             GreenRoof           316.61      0.00      0.00    180.56      0.00      7.05    143.11        0.00
  sub72             GreenRoof           316.61      0.00      0.00    180.56      0.00      7.05    143.11        0.00
  sub8              GreenRoof            99.63      0.00      0.00      0.00      0.00      7.05    106.68       -0.00
  sub9              GreenRoof            99.63      0.00      0.00      0.00      0.00      7.05    106.68       -0.00
  
  ******************
  Node Depth Summary
  ******************
  
  ---------------------------------------------------------------------------------
                                 Average  Maximum  Maximum  Time of Max    Reported
                                   Depth    Depth      HGL   Occurrence   Max Depth
  Node                 Type       Meters   Meters   Meters  days hr:min      Meters
  ---------------------------------------------------------------------------------
  HS02004478           JUNCTION     0.33     1.60    10.83     0  01:25        1.58
  HS02004479           JUNCTION     0.42     1.72    10.92     0  01:23        1.67
  HS02004480           JUNCTION     0.38     1.69    10.93     0  01:23        1.66
  HS02004770           JUNCTION     0.37     1.42    11.25     0  01:22        1.42
  HS02004777           JUNCTION     0.40     1.48    11.28     0  01:22        1.48
  HS02004785           JUNCTION     0.28     1.49    11.39     0  01:23        1.36
  HS02004788           JUNCTION     0.24     1.42    11.32     0  01:23        1.36
  HS02004792           JUNCTION     0.33     1.60    11.12     0  01:22        1.60
  HS02004799           JUNCTION     0.46     1.76    10.97     0  01:23        1.76
  HS02004802           JUNCTION     0.44     1.81    10.94     0  01:25        1.80
  HS02004807           JUNCTION     0.41     1.92    11.09     0  01:23        1.92
  HS02004817           JUNCTION     0.73     2.44    11.29     0  01:23        2.41
  HS02004824           JUNCTION     0.28     2.01    11.41     0  01:23        2.01
  HS02004830           JUNCTION     0.27     2.03    11.50     0  01:23        1.99
  HS02004837           JUNCTION     0.23     2.04    11.62     0  01:23        1.91
  HS02004842           JUNCTION     0.53     2.22    11.49     0  01:24        2.22
  HS02004848           JUNCTION     0.21     2.06    11.66     0  01:24        1.93
  HS02004852           JUNCTION     0.22     2.12    11.63     0  01:24        2.05
  HS02004856           JUNCTION     0.28     2.07    11.50     0  01:25        2.07
  HS02004862           JUNCTION     0.23     2.00    11.38     0  01:24        2.00
  HS02004870           JUNCTION     0.23     2.10    11.39     0  01:24        2.10
  HS02004876           JUNCTION     0.29     2.26    11.29     0  01:25        2.26
  HS02004881           JUNCTION     0.21     2.15    11.18     0  01:24        2.15
  HS02004901           JUNCTION     0.38     1.42    11.24     0  01:22        1.42
  WS02001211           JUNCTION     0.67     0.90     5.73     0  01:31        0.90
  WS02001212           JUNCTION     0.41     0.71     5.78     0  01:31        0.62
  WS02001213           JUNCTION     0.64     1.04     5.80     0  01:31        1.04
  WS02003059           JUNCTION     0.70     1.01     5.70     0  01:31        0.98
  WS02003060           JUNCTION     0.42     0.72     5.66     0  01:32        0.71
  WS02003066           JUNCTION     0.24     0.48     6.03     0  01:26        0.46
  WS02003067           JUNCTION     0.55     0.98     6.30     0  01:25        0.98
  WS02003069           JUNCTION     0.48     0.81     5.39     0  01:32        0.81
  WS02003072           JUNCTION     0.53     0.84     5.21     0  01:33        0.84
  WS02003073           JUNCTION     0.32     0.54     4.60     0  01:34        0.54
  WS02004138           JUNCTION     0.13     0.14     7.39     0  00:29        0.14
  WS02004139           JUNCTION     0.60     0.83     5.74     0  01:29        0.81
  WS02004401           JUNCTION     0.85     2.66     8.66     0  01:22        2.66
  WS02004402           JUNCTION     0.86     2.74     8.70     0  01:23        2.74
  WS02004403           JUNCTION     0.85     2.68     8.61     0  01:23        2.68
  WS02004404           JUNCTION     0.91     2.61     8.46     0  01:23        2.61
  WS02004405           JUNCTION     0.89     2.45     8.30     0  01:23        2.45
  WS02004406           JUNCTION     0.87     1.91     7.74     0  01:23        1.91
  WS02004407           JUNCTION     0.31     1.22     7.53     0  01:26        1.17
  WS02004409           JUNCTION     0.61     1.62     7.39     0  01:26        1.51
  WS02004410           JUNCTION     0.60     1.59     7.31     0  01:25        1.36
  WS02004411           JUNCTION     0.59     1.59     7.27     0  01:25        1.25
  WS02004412           JUNCTION     0.58     1.61     7.25     0  01:25        1.19
  WS02004413           JUNCTION     0.69     1.54     7.01     0  01:25        1.19
  WS02006109           JUNCTION     1.18     2.64     9.26     0  01:22        2.64
  WS02006110           JUNCTION     1.08     2.66     9.24     0  01:23        2.66
  WS02006111           JUNCTION     0.56     2.11     8.82     0  01:23        2.11
  WS02006112           JUNCTION     1.12     2.68     8.56     0  01:22        2.68
  WS02006113           JUNCTION     0.64     2.25     9.14     0  01:23        2.25
  WS02006115           JUNCTION     0.81     2.75     8.89     0  01:23        2.75
  WS02006116           JUNCTION     0.86     2.85     8.89     0  01:23        2.85
  WS02006228           JUNCTION     1.27     3.03     9.68     0  01:22        3.03
  WS02006229           JUNCTION     1.30     3.25     9.94     0  01:22        3.25
  WS02006230           JUNCTION     1.21     2.65     9.39     0  01:19        2.65
  WS02006231           JUNCTION     0.90     2.24     9.36     0  01:19        2.23
  WS02006232           JUNCTION     0.99     2.18     9.22     0  01:19        2.18
  WS02006234           JUNCTION     0.87     1.96     9.12     0  01:19        1.96
  WS02006235           JUNCTION     0.89     2.00     9.16     0  01:19        2.00
  WS02006238           JUNCTION     0.91     2.15     9.29     0  01:19        1.94
  WS02006239           JUNCTION     0.84     2.03     9.24     0  01:20        2.01
  WS02006240           JUNCTION     0.79     2.10     9.39     0  01:20        1.84
  WS02006242           JUNCTION     0.82     1.55     8.82     0  01:20        1.55
  WS02006243           JUNCTION     0.71     1.48     8.90     0  01:20        1.48
  WS02006245           JUNCTION     0.69     1.56     9.04     0  01:20        1.41
  WS02006247           JUNCTION     0.69     1.47     8.97     0  01:20        1.33
  WS02006248           JUNCTION     0.63     1.10     8.69     0  01:20        1.10
  WS02006249           JUNCTION     0.64     1.09     8.69     0  01:20        1.09
  WS02006251           JUNCTION     0.83     2.21     9.88     0  01:25        2.21
  WS02006252           JUNCTION     0.57     1.50     9.74     0  00:00        1.50
  WS02006253           JUNCTION     0.94     3.52    11.16     0  01:25        3.52
  WS02006256           JUNCTION     1.30     2.35     9.28     0  00:00        2.35
  WS02006280           JUNCTION     0.42     1.83    10.10     0  01:22        1.76
  WS02006284           JUNCTION     0.68     2.08    10.48     0  01:22        1.98
  WS02006287           JUNCTION     0.41     1.76    10.71     0  01:25        1.73
  WSF200               JUNCTION     0.25     0.60     5.83     0  01:26        0.56
  YS02001580           JUNCTION     0.26     0.90     9.44     0  01:25        0.81
  YS02001583           JUNCTION     0.29     0.90     9.40     0  01:25        0.83
  YS02001586           JUNCTION     0.45     1.13     9.30     0  01:25        1.13
  YS02001590           JUNCTION     0.59     1.40     9.26     0  01:46        1.40
  YS02001593           JUNCTION     0.51     1.31     9.17     0  02:15        1.31
  YS02001596           JUNCTION     0.69     1.72     9.14     0  02:22        1.72
  YS02001600           JUNCTION     0.82     1.87     9.00     0  02:22        1.87
  YS02001601           JUNCTION     1.02     2.06     8.90     0  01:25        2.06
  YS02001602           JUNCTION     0.89     1.87     8.77     0  01:31        1.87
  YS02001605           JUNCTION     0.83     1.78     8.68     0  01:46        1.78
  YS02001607           JUNCTION     0.78     1.68     8.53     0  02:22        1.68
  YS02001610           JUNCTION     0.83     1.68     8.48     0  01:33        1.68
  YS02001613           JUNCTION     0.79     1.70     8.54     0  01:34        1.70
  YS02001616           JUNCTION     0.72     1.61     8.52     0  01:34        1.61
  YS02001619           JUNCTION     0.70     1.61     8.54     0  02:14        1.61
  YS02001622           JUNCTION     0.69     1.62     8.52     0  01:46        1.62
  YS02001625           JUNCTION     0.94     1.78     8.38     0  01:33        1.78
  YS02001629           JUNCTION     0.87     1.85     8.40     0  01:40        1.85
  YS02001633           JUNCTION     0.96     2.08     8.53     0  02:19        2.08
  YS02001641           JUNCTION     0.93     2.08     8.51     0  02:22        2.08
  YS02001644           JUNCTION     0.92     1.92     8.35     0  01:42        1.92
  YS02001647           JUNCTION     0.72     1.79     8.40     0  02:20        1.79
  YS02001649           JUNCTION     0.82     2.05     8.44     0  02:18        2.05
  YS02001652           JUNCTION     0.71     2.16     8.76     0  02:22        2.16
  YS02001655           JUNCTION     0.60     2.20     9.05     0  02:27        2.20
  YS02001658           JUNCTION     0.50     2.30     9.44     0  02:29        2.30
  YS02001661           JUNCTION     0.46     2.46     9.86     0  02:39        2.46
  YS02001664           JUNCTION     0.27     2.31    10.23     0  02:29        2.31
  YS02001745           JUNCTION     0.31     2.35     9.87     0  02:35        2.35
  YS02001748           JUNCTION     0.47     2.27     9.35     0  02:33        2.27
  YS02001751           JUNCTION     0.54     2.19     9.07     0  02:33        2.19
  YS02001754           JUNCTION     0.66     2.18     8.78     0  02:33        2.17
  YS02001757           JUNCTION     0.87     2.21     8.47     0  02:15        2.21
  YS02001759           JUNCTION     0.81     2.21     8.57     0  02:15        2.21
  YS02001762           JUNCTION     0.80     2.15     8.55     0  02:15        2.15
  YS02001765           JUNCTION     0.77     2.09     8.54     0  02:27        2.08
  YS02001767           JUNCTION     0.75     2.03     8.52     0  02:15        2.03
  YS02001770           JUNCTION     0.75     1.95     8.44     0  02:14        1.95
  YS02001774           JUNCTION     0.82     2.05     8.47     0  02:22        2.05
  YS02001779           JUNCTION     0.62     1.68     8.37     0  01:58        1.68
  YS02001783           JUNCTION     0.49     1.54     7.68     0  02:39        1.54
  YS02001784           JUNCTION     0.47     1.35     7.41     0  02:39        1.35
  YS02001786           JUNCTION     0.38     0.99     7.02     0  02:39        0.98
  YS02001788           JUNCTION     0.27     0.68     6.65     0  02:36        0.68
  YS02001790           JUNCTION     0.31     0.74     6.39     0  02:24        0.72
  YS02001791           JUNCTION     0.19     0.46     5.93     0  02:27        0.45
  YS02001793           JUNCTION     0.10     0.30     5.13     0  01:46        0.29
  YS02001882           JUNCTION     0.62     1.83     8.55     0  02:27        1.83
  YS02001884           JUNCTION     0.71     1.93     8.55     0  02:27        1.93
  YS02001887           JUNCTION     0.79     2.00     8.54     0  02:22        2.00
  YS02001890           JUNCTION     0.80     1.81     8.32     0  01:46        1.81
  YS02001895           JUNCTION     0.57     1.64     8.39     0  02:22        1.64
  YS02001898           JUNCTION     0.57     1.65     8.39     0  01:46        1.65
  YS02001901           JUNCTION     0.69     1.86     8.46     0  02:22        1.86
  YS02001904           JUNCTION     0.67     1.69     8.32     0  01:46        1.69
  YS02001907           JUNCTION     0.99     1.96     8.25     0  01:43        1.96
  YS02001910           JUNCTION     0.82     2.10     8.61     0  02:22        2.10
  YS02001915           JUNCTION     0.65     2.00     8.72     0  02:18        2.00
  YS02001918           JUNCTION     0.46     1.81     8.88     0  02:22        1.81
  YS02001920           JUNCTION     0.55     2.11     9.12     0  02:22        2.11
  YS02001923           JUNCTION     0.41     1.92     9.18     0  02:39        1.92
  YS02001926           JUNCTION     0.41     1.88     9.33     0  02:32        1.88
  YS02001929           JUNCTION     0.30     1.78     9.47     0  02:22        1.78
  YS02006553           JUNCTION     1.00     2.19     8.47     0  02:22        2.19
  YS02006556           JUNCTION     0.99     2.35     8.66     0  02:29        2.35
  YS02006558           JUNCTION     1.03     2.50     8.77     0  02:22        2.50
  YS02006561           JUNCTION     0.33     1.24     7.90     0  02:39        1.24
  YS02163301           JUNCTION     0.90     2.03     8.55     0  02:22        2.03
  YS02163601           JUNCTION     0.99     2.08     8.48     0  01:46        2.08
  YS02164001           JUNCTION     0.92     2.03     8.48     0  01:46        2.00
  YSB1154              JUNCTION     0.57     2.03    11.09     0  01:27        2.03
  YSB1171              JUNCTION     0.71     1.95    10.85     0  01:23        1.95
  YSB1174              JUNCTION     0.51     1.87    10.98     0  01:23        1.84
  YSB6556              JUNCTION     0.46     1.80    10.97     0  01:23        1.78
  CC-1                 OUTFALL      0.00     0.00     0.00     0  00:00        0.00
  CC-2                 OUTFALL      0.00     0.00     0.00     0  00:00        0.00
  JK-1                 OUTFALL      0.00     0.00     0.00     0  00:00        0.00
  JK-2                 OUTFALL      0.00     0.00     0.00     0  00:00        0.00
  WSC                  OUTFALL      0.32     0.53     1.20     0  01:34        0.53
  CC-storage           STORAGE      1.26     2.30     7.80     0  02:39        2.30
  JK-storage           STORAGE      2.73     4.24     5.04     0  01:46        4.22
  XR-storage           STORAGE      7.89     9.26     7.26     0  08:00        9.26
  
  
  *******************
  Node Inflow Summary
  *******************
  
  -------------------------------------------------------------------------------------------------
                                  Maximum  Maximum                  Lateral       Total        Flow
                                  Lateral    Total  Time of Max      Inflow      Inflow     Balance
                                   Inflow   Inflow   Occurrence      Volume      Volume       Error
  Node                 Type           LPS      LPS  days hr:min    10^6 ltr    10^6 ltr     Percent
  -------------------------------------------------------------------------------------------------
  HS02004478           JUNCTION      0.00  2308.72     0  01:26           0        10.9      -0.010
  HS02004479           JUNCTION      0.00   616.44     0  01:23           0        1.02       0.102
  HS02004480           JUNCTION      0.00  2239.47     0  01:23           0        8.15       0.019
  HS02004770           JUNCTION   2047.39  2047.39     0  01:28        3.97        4.23       0.064
  HS02004777           JUNCTION      0.03   983.09     0  01:23    0.000864        2.28       0.222
  HS02004785           JUNCTION      0.15   981.91     0  01:23     0.00432        2.28       0.002
  HS02004788           JUNCTION    715.82   934.60     0  01:23        1.41        3.69      -0.001
  HS02004792           JUNCTION   2589.53  3459.55     0  01:28        5.56        9.24       0.001
  HS02004799           JUNCTION    417.72  1676.13     0  01:23       0.668        7.47       0.047
  HS02004802           JUNCTION      0.00  1233.66     0  01:34           0        2.98       0.127
  HS02004807           JUNCTION    542.20  1723.05     0  01:27       0.853        3.24       0.136
  HS02004817           JUNCTION      0.60  1197.00     0  01:31      0.0173        2.44       0.684
  HS02004824           JUNCTION    782.22  1355.37     0  01:30        1.78        2.73       0.031
  HS02004830           JUNCTION      0.15   883.32     0  01:23     0.00432        1.21       0.021
  HS02004837           JUNCTION    523.22  1174.72     0  01:23        1.05        1.58       0.045
  HS02004842           JUNCTION      0.00  1092.81     0  01:24           0        0.93       1.428
  HS02004848           JUNCTION    721.58  1441.61     0  01:24        1.87        2.52       0.032
  HS02004852           JUNCTION      0.00  1466.17     0  01:24           0        2.26       0.012
  HS02004856           JUNCTION    214.00  1602.54     0  01:24       0.341         2.6       0.046
  HS02004862           JUNCTION    335.19  1748.87     0  01:24       0.793        3.39      -0.012
  HS02004870           JUNCTION    293.77  1991.31     0  01:24       0.467        3.79      -0.002
  HS02004876           JUNCTION    327.46  1518.21     0  01:31       0.576        4.36       0.009
  HS02004881           JUNCTION    163.59  1660.76     0  01:27       0.253        4.61      -0.025
  HS02004901           JUNCTION    483.18   687.94     0  01:29        0.84        1.33       0.133
  WS02001211           JUNCTION      7.35   379.59     0  01:28       0.212        5.46       0.608
  WS02001212           JUNCTION      0.00   577.07     0  01:27           0        5.44       0.287
  WS02001213           JUNCTION      0.00   527.70     0  01:27           0        5.43       0.311
  WS02003059           JUNCTION      0.00   598.85     0  01:26           0        5.45       0.583
  WS02003060           JUNCTION     16.53  1708.46     0  01:26       0.476          16       0.091
  WS02003066           JUNCTION      0.00  1415.67     0  01:27           0        10.1       0.018
  WS02003067           JUNCTION      0.00  1393.69     0  01:27           0        10.1       0.042
  WS02003069           JUNCTION      0.32  1615.15     0  01:32     0.00922          16       0.098
  WS02003072           JUNCTION      0.00  1598.20     0  01:33           0        15.9       0.131
  WS02003073           JUNCTION      1.82  1599.05     0  01:33      0.0524          16       0.133
  WS02004138           JUNCTION      0.00   380.00     0  00:00           0        5.25       0.057
  WS02004139           JUNCTION      0.32   379.29     0  01:29     0.00924        5.26       0.509
  WS02004401           JUNCTION      0.00  1424.86     0  01:26           0        10.3       0.102
  WS02004402           JUNCTION      0.00  1424.10     0  01:26           0        10.2       0.100
  WS02004403           JUNCTION      0.00  1423.33     0  01:26           0        10.2       0.101
  WS02004404           JUNCTION      0.16  1422.65     0  01:25     0.00467        10.2       0.077
  WS02004405           JUNCTION      0.04  1423.37     0  01:25      0.0011        10.2       0.130
  WS02004406           JUNCTION      0.00  1424.51     0  01:25           0        10.2       0.200
  WS02004407           JUNCTION      0.00  1424.23     0  01:25           0        10.2       0.011
  WS02004409           JUNCTION      0.00  1426.11     0  01:23           0        10.2       0.029
  WS02004410           JUNCTION      0.00  1400.50     0  01:23           0        10.2       0.045
  WS02004411           JUNCTION      0.00  1404.61     0  01:24           0        10.2       0.059
  WS02004412           JUNCTION      0.00  1387.54     0  01:27           0        10.2       0.071
  WS02004413           JUNCTION      0.00  1391.13     0  01:27           0        10.2       0.156
  WS02006109           JUNCTION      1.23  1291.62     0  01:26      0.0354        9.97       0.075
  WS02006110           JUNCTION      0.00  1279.98     0  01:22           0        9.54       0.096
  WS02006111           JUNCTION      0.00  1276.68     0  01:22           0        9.53      -0.003
  WS02006112           JUNCTION    419.25  1429.50     0  01:22       0.749        10.3       0.141
  WS02006113           JUNCTION      0.00  1279.67     0  01:22           0        9.54       0.029
  WS02006115           JUNCTION      0.00  1431.63     0  01:22           0        10.3       0.103
  WS02006116           JUNCTION      0.00  1437.33     0  01:22           0        10.3       0.025
  WS02006228           JUNCTION      0.00  1290.75     0  01:26           0        9.94       0.038
  WS02006229           JUNCTION      0.00  2310.59     0  01:26           0        13.2       0.049
  WS02006230           JUNCTION     10.28  1029.07     0  01:25       0.296        5.59       0.111
  WS02006231           JUNCTION      0.00   501.95     0  03:26           0        3.92      -0.095
  WS02006232           JUNCTION      0.00   502.64     0  03:26           0        3.92       0.069
  WS02006234           JUNCTION      0.00   529.10     0  03:25           0        3.92      -0.071
  WS02006235           JUNCTION      0.00   531.39     0  03:25           0        4.02       0.072
  WS02006238           JUNCTION      0.00   425.83     0  03:40           0        3.66      -0.045
  WS02006239           JUNCTION      0.00   437.45     0  01:20           0        3.65      -0.058
  WS02006240           JUNCTION      0.00   483.60     0  01:20           0        3.65      -0.032
  WS02006242           JUNCTION      0.00   487.15     0  01:20           0        3.65       0.028
  WS02006243           JUNCTION      0.00   425.40     0  03:40           0        3.09      -0.033
  WS02006245           JUNCTION      0.00   425.39     0  03:40           0        3.09       0.110
  WS02006247           JUNCTION      0.00   425.28     0  03:40           0        3.09       0.005
  WS02006248           JUNCTION      0.00   480.77     0  01:20           0        3.46       0.010
  WS02006249           JUNCTION      0.00  1381.08     0  01:27           0        8.03       0.031
  WS02006251           JUNCTION      0.08  1715.47     0  01:27     0.00222        8.27      -0.017
  WS02006252           JUNCTION      0.00   736.40     0  01:27           0        4.46      -0.013
  WS02006253           JUNCTION     54.45  1713.90     0  01:27      0.0789         4.7       0.020
  WS02006256           JUNCTION      0.00   300.00     0  00:00           0        2.21      -0.165
  WS02006280           JUNCTION      0.00  2308.94     0  01:26           0        10.9      -0.004
  WS02006284           JUNCTION      0.10  2308.53     0  01:26     0.00275        10.9       0.015
  WS02006287           JUNCTION      0.00  2308.92     0  01:26           0        10.9       0.014
  WSF200               JUNCTION      0.00  1433.73     0  01:27           0        10.1       0.010
  YS02001580           JUNCTION      0.00    58.37     0  01:25           0     0.00437       1.262
  YS02001583           JUNCTION      0.00    87.86     0  01:25           0      0.0163      -2.966
  YS02001586           JUNCTION   5611.68  5611.69     0  02:36        8.26        8.27       0.012
  YS02001590           JUNCTION      0.00   319.04     0  01:46           0        2.43      -0.033
  YS02001593           JUNCTION      0.00   319.48     0  01:46           0        2.43       0.007
  YS02001596           JUNCTION      0.00   318.00     0  02:09           0        2.43      -0.008
  YS02001600           JUNCTION      0.00   318.23     0  01:46           0        2.43       0.009
  YS02001601           JUNCTION   8339.22  8656.72     0  02:36        10.6          13       0.005
  YS02001602           JUNCTION      0.00   499.76     0  01:25           0        3.43       0.011
  YS02001605           JUNCTION      0.00   500.00     0  01:25           0        3.08       0.023
  YS02001607           JUNCTION      0.00   499.38     0  01:25           0        3.07       0.055
  YS02001610           JUNCTION      0.00   957.43     0  02:22           0        4.86       0.052
  YS02001613           JUNCTION      0.00   621.17     0  02:22           0        3.29       0.043
  YS02001616           JUNCTION      0.00   632.95     0  02:22           0        3.29       0.010
  YS02001619           JUNCTION   9635.15  9635.15     0  02:36        13.2        14.7      -0.003
  YS02001622           JUNCTION      0.00  1072.75     0  02:22           0        7.18      -0.001
  YS02001625           JUNCTION      0.00  1505.46     0  02:26           0        8.55       0.146
  YS02001629           JUNCTION      0.00  1138.86     0  02:42           0        5.19      -0.015
  YS02001633           JUNCTION   6186.72  6186.72     0  02:36        7.98        10.7       0.031
  YS02001641           JUNCTION      0.00  1200.45     0  01:30           0        6.39       0.056
  YS02001644           JUNCTION   5513.84  7265.48     0  02:36        6.81        14.6       0.021
  YS02001647           JUNCTION      0.00  1468.82     0  01:30           0        7.12      -0.001
  YS02001649           JUNCTION      0.00  3237.00     0  02:39           0        11.9       0.002
  YS02001652           JUNCTION      0.00  2429.09     0  02:30           0        5.62      -0.016
  YS02001655           JUNCTION      0.15  2731.44     0  02:36     0.00443        5.82       0.019
  YS02001658           JUNCTION      0.00  2783.63     0  02:32           0        5.84      -0.091
  YS02001661           JUNCTION      0.00  2783.65     0  02:39           0        5.84      -0.058
  YS02001664           JUNCTION   5268.51  5268.51     0  02:36        6.51        6.51       0.001
  YS02001745           JUNCTION   3170.84  3170.84     0  02:36        3.72        3.72       0.029
  YS02001748           JUNCTION      0.04  3116.81     0  02:36      0.0013        3.72      -0.058
  YS02001751           JUNCTION      0.01  2353.32     0  02:37    0.000317        3.61       0.025
  YS02001754           JUNCTION      0.26  2353.58     0  02:37     0.00749        3.62      -0.048
  YS02001757           JUNCTION      0.00  3760.87     0  02:37           0        17.7       0.006
  YS02001759           JUNCTION   4396.95  4396.95     0  02:36         5.3        7.37      -0.005
  YS02001762           JUNCTION      0.00   722.62     0  02:39           0        2.88       0.003
  YS02001765           JUNCTION      0.00   722.50     0  02:39           0        2.88       0.009
  YS02001767           JUNCTION      0.54   723.04     0  02:39      0.0154        2.88       0.007
  YS02001770           JUNCTION   6434.03  7156.20     0  02:36        7.83        8.67      -0.005
  YS02001774           JUNCTION      0.00   877.04     0  02:22           0        2.13       0.060
  YS02001779           JUNCTION      0.01   851.73     0  02:23    0.000144        2.09      -0.002
  YS02001783           JUNCTION      0.00  1322.02     0  02:39           0        7.73       0.002
  YS02001784           JUNCTION      1.06  1322.48     0  02:39      0.0305        7.76       0.006
  YS02001786           JUNCTION      0.06  1323.64     0  02:39     0.00162        7.76       0.008
  YS02001788           JUNCTION      0.07  1324.58     0  02:39     0.00204        7.76       0.003
  YS02001790           JUNCTION      0.15  1329.06     0  02:35     0.00446        7.76       0.016
  YS02001791           JUNCTION      0.00  1374.09     0  02:36           0        7.76      -0.036
  YS02001793           JUNCTION      0.00  1360.32     0  02:37           0        7.77       0.005
  YS02001882           JUNCTION      0.00    32.30     0  01:16           0      0.0152       5.131
  YS02001884           JUNCTION      0.00    64.61     0  01:15           0      0.0515       4.809
  YS02001887           JUNCTION   4566.52  4566.52     0  02:36        5.37        5.41       0.079
  YS02001890           JUNCTION      0.00  2052.03     0  02:38           0        4.61       0.115
  YS02001895           JUNCTION      0.00   520.70     0  02:39           0        2.59       0.080
  YS02001898           JUNCTION      0.00   518.92     0  02:39           0        2.59      -0.007
  YS02001901           JUNCTION      0.00   518.28     0  02:25           0        2.59       0.124
  YS02001904           JUNCTION      0.00   526.24     0  02:22           0         2.6       0.107
  YS02001907           JUNCTION      0.00  4671.89     0  02:39           0          12       0.152
  YS02001910           JUNCTION      0.00  1993.17     0  02:23           0        7.11       0.099
  YS02001915           JUNCTION   6062.18  7283.87     0  02:36        7.22        10.5       0.014
  YS02001918           JUNCTION      0.00  1681.63     0  02:39           0        3.59       0.007
  YS02001920           JUNCTION      2.87  1682.09     0  02:38      0.0827        3.59       0.021
  YS02001923           JUNCTION      0.04  1679.03     0  02:38     0.00109        3.51      -0.001
  YS02001926           JUNCTION      0.05  1678.89     0  02:39      0.0015         3.5       0.003
  YS02001929           JUNCTION   3056.34  3056.34     0  02:36        3.89        3.89      -0.005
  YS02006553           JUNCTION      0.00  2160.55     0  02:39           0        5.35       0.218
  YS02006556           JUNCTION      0.00  2161.54     0  02:39           0        5.37       0.156
  YS02006558           JUNCTION   6550.62  6550.62     0  02:36        7.77        10.8       0.028
  YS02006561           JUNCTION      0.00  1322.27     0  02:39           0        7.73      -0.001
  YS02163301           JUNCTION      0.00  1138.80     0  02:40           0         5.2       0.029
  YS02163601           JUNCTION      0.11  1201.95     0  01:30     0.00317        6.38       0.077
  YS02164001           JUNCTION      0.00  1201.23     0  01:30           0        6.38       0.042
  YSB1154              JUNCTION    531.62   531.62     0  01:28       0.915       0.915       0.161
  YSB1171              JUNCTION      0.00  1188.07     0  01:28           0        1.79       0.352
  YSB1174              JUNCTION    462.28   462.28     0  01:26       0.684       0.685       0.180
  YSB6556              JUNCTION      0.00   531.89     0  01:28           0       0.916       0.123
  CC-1                 OUTFALL       0.00   683.00     0  00:00           0        6.72       0.000
  CC-2                 OUTFALL       0.00   683.00     0  00:00           0        6.37       0.000
  JK-1                 OUTFALL       0.00  1000.00     0  00:00           0        5.48       0.000
  JK-2                 OUTFALL       0.00  1000.00     0  00:00           0      0.0226       0.000
  WSC                  OUTFALL       0.00  1589.98     0  01:34           0          16       0.000
  CC-storage           STORAGE       0.00  2605.01     0  01:55           0        19.1      -0.122
  JK-storage           STORAGE       0.00  1379.04     0  02:24           0        7.92       0.110
  XR-storage           STORAGE     200.00   200.00     0  00:00        5.76        6.36       0.001
  
  
  **********************
  Node Surcharge Summary
  **********************
  
  Surcharging occurs when water rises above the top of the highest conduit.
  ---------------------------------------------------------------------
                                               Max. Height   Min. Depth
                                   Hours       Above Crown    Below Rim
  Node                 Type      Surcharged         Meters       Meters
  ---------------------------------------------------------------------
  HS02004478           JUNCTION        0.73          0.682        0.258
  HS02004479           JUNCTION        0.88          0.919        0.131
  HS02004480           JUNCTION        0.93          0.977        0.123
  HS02004770           JUNCTION        0.83          0.720        0.000
  HS02004777           JUNCTION        0.84          0.780        0.000
  HS02004785           JUNCTION        0.77          0.790        0.000
  HS02004788           JUNCTION        0.75          0.720        0.000
  HS02004792           JUNCTION        0.90          0.900        0.000
  HS02004799           JUNCTION        1.03          1.060        0.000
  HS02004802           JUNCTION        0.93          1.097        0.113
  HS02004807           JUNCTION        0.90          1.220        0.000
  HS02004817           JUNCTION        1.71          1.740        0.000
  HS02004824           JUNCTION        0.75          1.310        0.000
  HS02004830           JUNCTION        0.71          1.330        0.000
  HS02004837           JUNCTION        0.66          1.340        0.000
  HS02004842           JUNCTION        0.82          1.520        0.000
  HS02004848           JUNCTION        0.64          1.362        0.008
  HS02004852           JUNCTION        0.67          1.420        0.000
  HS02004856           JUNCTION        0.65          1.300        0.000
  HS02004862           JUNCTION        0.70          1.300        0.000
  HS02004870           JUNCTION        0.72          1.400        0.000
  HS02004876           JUNCTION        0.81          1.560        0.000
  HS02004881           JUNCTION        0.78          1.450        0.000
  HS02004901           JUNCTION        0.84          0.720        0.000
  WS02004401           JUNCTION        1.88          1.660        0.000
  WS02004402           JUNCTION        1.91          1.740        0.000
  WS02004403           JUNCTION        1.92          1.681        0.349
  WS02004404           JUNCTION        2.30          1.614        1.166
  WS02004405           JUNCTION        2.26          1.450        1.350
  WS02004406           JUNCTION        2.15          0.912        1.538
  WS02004407           JUNCTION        0.02          0.219        2.121
  WS02004409           JUNCTION        1.42          0.620        1.740
  WS02004410           JUNCTION        1.29          0.586        1.954
  WS02004411           JUNCTION        1.19          0.593        1.937
  WS02004412           JUNCTION        1.03          0.608        1.702
  WS02004413           JUNCTION        1.73          0.540        1.660
  WS02006109           JUNCTION        2.94          1.820        0.000
  WS02006110           JUNCTION        2.33          1.746        0.104
  WS02006111           JUNCTION        1.70          1.299        0.571
  WS02006112           JUNCTION        2.53          1.680        0.000
  WS02006113           JUNCTION        1.74          1.449        0.481
  WS02006115           JUNCTION        1.84          1.742        0.508
  WS02006116           JUNCTION        1.84          1.792        0.498
  WS02006228           JUNCTION        2.94          2.200        0.000
  WS02006229           JUNCTION        1.29          1.070        0.000
  WS02006230           JUNCTION        2.31          1.570        0.000
  WS02006231           JUNCTION        2.32          1.530        0.000
  WS02006232           JUNCTION        2.92          1.480        0.000
  WS02006234           JUNCTION        2.86          1.240        0.000
  WS02006235           JUNCTION        2.88          1.290        0.000
  WS02006238           JUNCTION        2.90          1.430        0.000
  WS02006239           JUNCTION        2.88          1.290        0.000
  WS02006240           JUNCTION        2.88          1.390        0.000
  WS02006242           JUNCTION        2.89          0.820        0.000
  WS02006243           JUNCTION        2.87          0.770        0.000
  WS02006245           JUNCTION        2.87          0.850        0.000
  WS02006247           JUNCTION        2.87          0.760        0.000
  WS02006248           JUNCTION        2.86          0.380        0.000
  WS02006249           JUNCTION        2.86          0.390        0.000
  WS02006251           JUNCTION        2.49          1.180        0.000
  WS02006252           JUNCTION        2.86          1.100        0.000
  WS02006253           JUNCTION        2.55          2.480        0.000
  WS02006256           JUNCTION        4.47          2.050        0.000
  WS02006280           JUNCTION        1.06          0.780        0.000
  WS02006284           JUNCTION        0.95          0.800        0.000
  WS02006287           JUNCTION        0.83          0.757        0.133
  YS02001580           JUNCTION        1.69          0.297        0.153
  YS02001583           JUNCTION        1.70          0.259        0.241
  YS02001586           JUNCTION        1.81          0.510        0.000
  YS02001590           JUNCTION        1.89          0.750        0.000
  YS02001593           JUNCTION        1.89          0.688        0.152
  YS02001596           JUNCTION        2.00          0.988        0.082
  YS02001600           JUNCTION        2.12          1.190        0.000
  YS02001601           JUNCTION        2.34          1.440        0.000
  YS02001602           JUNCTION        2.29          1.270        0.000
  YS02001605           JUNCTION        2.26          1.180        0.000
  YS02001607           JUNCTION        1.90          0.680        0.000
  YS02001610           JUNCTION        1.93          0.680        0.000
  YS02001613           JUNCTION        1.90          0.700        0.000
  YS02001616           JUNCTION        1.86          0.610        0.000
  YS02001619           JUNCTION        1.85          0.610        0.000
  YS02001622           JUNCTION        1.85          0.620        0.000
  YS02001625           JUNCTION        2.04          0.780        0.000
  YS02001629           JUNCTION        1.76          0.470        0.000
  YS02001633           JUNCTION        2.10          1.060        0.000
  YS02001641           JUNCTION        2.07          1.076        0.024
  YS02001644           JUNCTION        2.04          0.920        0.000
  YS02001647           JUNCTION        1.80          0.793        0.107
  YS02001649           JUNCTION        1.95          1.050        0.000
  YS02001652           JUNCTION        1.76          1.130        0.000
  YS02001655           JUNCTION        1.54          1.200        0.000
  YS02001658           JUNCTION        1.21          1.300        0.000
  YS02001661           JUNCTION        0.63          1.390        0.000
  YS02001664           JUNCTION        0.39          1.310        0.000
  YS02001745           JUNCTION        0.40          1.350        0.000
  YS02001748           JUNCTION        1.09          1.190        0.000
  YS02001751           JUNCTION        1.43          1.190        0.010
  YS02001754           JUNCTION        1.70          1.127        0.023
  YS02001757           JUNCTION        2.03          1.210        0.000
  YS02001759           JUNCTION        1.95          1.210        0.000
  YS02001762           JUNCTION        1.91          1.150        0.000
  YS02001765           JUNCTION        1.87          1.086        0.014
  YS02001767           JUNCTION        1.84          1.030        0.000
  YS02001770           JUNCTION        1.82          0.920        0.000
  YS02001774           JUNCTION        1.90          1.050        0.000
  YS02001779           JUNCTION        1.68          0.680        0.000
  YS02001783           JUNCTION        1.54          0.735        0.865
  YS02001784           JUNCTION        1.51          0.546        0.944
  YS02001786           JUNCTION        1.33          0.187        1.243
  YS02001882           JUNCTION        1.45          0.830        0.000
  YS02001884           JUNCTION        1.47          0.870        0.000
  YS02001887           JUNCTION        1.53          0.950        0.000
  YS02001890           JUNCTION        1.55          0.760        0.000
  YS02001895           JUNCTION        1.43          0.644        0.106
  YS02001898           JUNCTION        1.42          0.620        0.120
  YS02001901           JUNCTION        1.51          0.856        0.014
  YS02001904           JUNCTION        1.49          0.693        0.157
  YS02001907           JUNCTION        1.80          0.950        0.000
  YS02001910           JUNCTION        1.58          1.100        0.000
  YS02001915           JUNCTION        1.45          1.000        0.000
  YS02001918           JUNCTION        1.31          0.810        0.000
  YS02001920           JUNCTION        1.33          1.113        0.027
  YS02001923           JUNCTION        0.62          0.711        0.109
  YS02001926           JUNCTION        0.67          0.880        0.020
  YS02001929           JUNCTION        0.47          0.780        0.000
  YS02006553           JUNCTION        1.81          1.190        0.000
  YS02006556           JUNCTION        1.71          1.312        0.038
  YS02006558           JUNCTION        1.69          1.400        0.000
  YS02006561           JUNCTION        1.27          0.436        0.714
  YS02163301           JUNCTION        2.07          1.030        0.000
  YS02163601           JUNCTION        2.15          1.080        0.000
  YS02164001           JUNCTION        2.06          1.026        0.074
  YSB1154              JUNCTION        1.23          1.328        0.072
  YSB1171              JUNCTION        1.23          1.100        0.000
  YSB1174              JUNCTION        1.09          1.171        0.079
  YSB6556              JUNCTION        0.98          1.100        0.000
  
  
  *********************
  Node Flooding Summary
  *********************
  
  Flooding refers to all water that overflows a node, whether it ponds or not.
  --------------------------------------------------------------------------
                                                             Total   Maximum
                                 Maximum   Time of Max       Flood    Ponded
                        Hours       Rate    Occurrence      Volume     Depth
  Node                 Flooded       LPS   days hr:min    10^6 ltr    Meters
  --------------------------------------------------------------------------
  HS02004770              0.52   1704.69      0  01:27       1.459     0.000
  HS02004777              0.01    111.49      0  01:22       0.002     0.000
  HS02004785              0.01    355.38      0  01:23       0.002     0.000
  HS02004788              0.01    447.45      0  01:23       0.007     0.000
  HS02004792              0.56   2316.87      0  01:28       2.437     0.000
  HS02004799              0.25    358.61      0  01:25       0.143     0.000
  HS02004807              0.20    497.30      0  01:27       0.236     0.000
  HS02004817              0.01      5.00      0  01:23       0.000     0.000
  HS02004824              0.12    299.26      0  01:23       0.049     0.000
  HS02004830              0.01     96.14      0  01:23       0.000     0.000
  HS02004837              0.01    437.25      0  01:23       0.001     0.000
  HS02004842              0.13    134.58      0  01:29       0.041     0.000
  HS02004852              0.01     75.96      0  01:24       0.000     0.000
  HS02004856              0.01     76.58      0  01:25       0.000     0.000
  HS02004862              0.11    458.34      0  01:24       0.063     0.000
  HS02004870              0.01   1005.65      0  01:24       0.011     0.000
  HS02004876              0.01    108.23      0  01:25       0.001     0.000
  HS02004881              0.01    414.98      0  01:24       0.001     0.000
  HS02004901              0.65    687.94      0  01:29       1.061     0.000
  WS02004401              0.01     47.40      0  01:23       0.000     0.000
  WS02004402              0.01     15.92      0  01:23       0.000     0.000
  WS02006109              0.63    388.18      0  01:27       0.422     0.000
  WS02006112              0.01    154.12      0  01:23       0.001     0.000
  WS02006228              0.01      5.51      0  01:22       0.000     0.000
  WS02006229              0.01     49.64      0  01:22       0.000     0.000
  WS02006230              0.96    576.38      0  01:25       1.398     0.000
  WS02006231              0.01    119.04      0  01:19       0.000     0.000
  WS02006232              0.22     36.74      0  01:19       0.000     0.000
  WS02006234              1.06    180.63      0  01:19       0.436     0.000
  WS02006235              0.01    236.83      0  01:19       0.000     0.000
  WS02006238              0.01    218.93      0  01:19       0.000     0.000
  WS02006239              0.01    354.26      0  01:20       0.001     0.000
  WS02006240              0.01    419.80      0  01:20       0.001     0.000
  WS02006242              1.24    460.14      0  01:20       0.556     0.000
  WS02006243              0.01    385.73      0  01:20       0.001     0.000
  WS02006245              0.01    191.02      0  01:20       0.000     0.000
  WS02006247              0.01    388.65      0  01:20       0.001     0.000
  WS02006248              1.73    460.21      0  01:20       1.787     0.000
  WS02006249              2.32   1325.46      0  01:26       5.992     0.000
  WS02006251              0.01    181.65      0  01:25       0.001     0.000
  WS02006252              0.71    735.68      0  01:27       0.886     0.000
  WS02006253              0.01    214.35      0  01:25       0.000     0.000
  WS02006256              2.04    294.50      0  01:38       1.312     0.000
  WS02006280              0.01     20.15      0  01:22       0.000     0.000
  WS02006284              0.01    258.32      0  01:22       0.000     0.000
  YS02001586              1.49   5293.22      0  02:36       5.831     0.000
  YS02001590              0.01      0.14      0  01:46       0.000     0.000
  YS02001600              0.01      0.15      0  02:39       0.000     0.000
  YS02001601              1.74   8256.27      0  02:36       9.616     0.000
  YS02001602              1.62     62.47      0  02:45       0.351     0.000
  YS02001605              0.01      1.02      0  02:22       0.000     0.000
  YS02001607              0.01      0.87      0  02:22       0.000     0.000
  YS02001610              1.55    957.26      0  02:22       3.359     0.000
  YS02001613              0.01      0.83      0  01:46       0.000     0.000
  YS02001616              0.18     12.85      0  02:22       0.001     0.000
  YS02001619              0.60   7962.56      0  02:36       5.705     0.000
  YS02001622              0.01     15.95      0  02:22       0.000     0.000
  YS02001625              1.55   1505.25      0  02:26       5.785     0.000
  YS02001629              0.65    686.75      0  02:42       1.070     0.000
  YS02001633              0.33   4141.72      0  02:36       1.904     0.000
  YS02001644              1.09   7263.72      0  02:36       8.945     0.000
  YS02001649              0.41   2390.03      0  02:39       2.254     0.000
  YS02001652              0.01      0.81      0  02:22       0.000     0.000
  YS02001655              0.21    303.17      0  02:39       0.200     0.000
  YS02001658              0.17     52.09      0  02:32       0.031     0.000
  YS02001661              0.01      0.91      0  02:39       0.000     0.000
  YS02001664              0.17   2483.74      0  02:36       0.676     0.000
  YS02001745              0.01     64.02      0  02:36       0.001     0.000
  YS02001748              0.08    763.12      0  02:36       0.114     0.000
  YS02001757              0.17    759.09      0  02:37       0.288     0.000
  YS02001759              0.19   2266.62      0  02:36       0.660     0.000
  YS02001762              0.04      1.49      0  02:29       0.000     0.000
  YS02001767              0.01      0.43      0  02:39       0.000     0.000
  YS02001770              0.50   6302.96      0  02:36       4.497     0.000
  YS02001774              0.01     21.04      0  02:22       0.000     0.000
  YS02001779              0.94    851.46      0  02:23       2.070     0.000
  YS02001882              0.01      0.98      0  02:27       0.000     0.000
  YS02001884              0.01      0.74      0  02:27       0.000     0.000
  YS02001887              0.20   2513.02      0  02:36       0.759     0.000
  YS02001890              0.75   1538.49      0  02:39       2.014     0.000
  YS02001907              1.24   4671.01      0  02:39       8.894     0.000
  YS02001910              0.01      0.54      0  02:22       0.000     0.000
  YS02001915              0.45   5289.48      0  02:36       3.349     0.000
  YS02001918              0.27    459.91      0  02:39       0.342     0.000
  YS02001929              0.17   1377.33      0  02:36       0.384     0.000
  YS02006553              0.01      1.18      0  02:22       0.000     0.000
  YS02006558              0.16   3068.71      0  02:36       0.799     0.000
  YS02163301              0.01      0.25      0  02:22       0.000     0.000
  YS02163601              0.01     14.62      0  01:46       0.000     0.000
  YSB1171                 0.40   1187.76      0  01:28       0.953     0.000
  YSB6556                 0.01      8.04      0  01:23       0.000     0.000
  CC-storage              0.31    410.53      0  02:39       0.192     0.000
  
  
  **********************
  Storage Volume Summary
  **********************
  
  --------------------------------------------------------------------------------------------------
                         Average     Avg  Evap Exfil       Maximum     Max    Time of Max    Maximum
                          Volume    Pcnt  Pcnt  Pcnt        Volume    Pcnt     Occurrence    Outflow
  Storage Unit           1000 m3    Full  Loss  Loss       1000 m3    Full    days hr:min        LPS
  --------------------------------------------------------------------------------------------------
  CC-storage               3.518      55     0     0         6.410     100       0  02:39    1779.37
  JK-storage               0.137      47     0     0         0.213      73       0  01:46    2300.00
  XR-storage               0.946      66     0     0         1.111      77       0  08:00     380.00
  
  
  ***********************
  Outfall Loading Summary
  ***********************
  
  -----------------------------------------------------------
                         Flow       Avg       Max       Total
                         Freq      Flow      Flow      Volume
  Outfall Node           Pcnt       LPS       LPS    10^6 ltr
  -----------------------------------------------------------
  CC-1                  51.27    683.00    683.00       6.717
  CC-2                  48.48    683.00    683.00       6.368
  JK-1                  29.38   1000.00   1000.00       5.480
  JK-2                   0.10   1000.00   1000.00       0.023
  WSC                   99.94    728.70   1589.98      15.950
  -----------------------------------------------------------
  System                45.84   4094.70   1589.98      34.538
  
  
  ********************
  Link Flow Summary
  ********************
  
  -----------------------------------------------------------------------------
                                 Maximum  Time of Max   Maximum    Max/    Max/
                                  |Flow|   Occurrence   |Veloc|    Full    Full
  Link                 Type          LPS  days hr:min     m/sec    Flow   Depth
  -----------------------------------------------------------------------------
  1                    CONDUIT   1589.98     0  01:34      3.75    0.55    0.53
  HS02004478WS02006287 CONDUIT   2308.92     0  01:26      2.69    0.65    1.00
  HS02004479HS02004480 CONDUIT    615.71     0  01:23      0.88    0.59    1.00
  HS02004480HS02004478 CONDUIT   2240.71     0  01:23      3.20    9.44    1.00
  HS02004770HS02004777 CONDUIT    983.06     0  01:23      1.40    1.80    1.00
  HS02004777HS02004785 CONDUIT    981.76     0  01:23      1.51    1.21    1.00
  HS02004785HS02004788 CONDUIT    642.09     0  01:23      1.34    4.84    1.00
  HS02004788HS02004792 CONDUIT    880.09     0  01:27      1.39    0.58    1.00
  HS02004792HS02004799 CONDUIT   1555.35     0  02:02      2.22    0.95    1.00
  HS02004799HS02004480 CONDUIT   1672.63     0  01:23      2.39    2.11    1.00
  HS02004802HS02004478 CONDUIT   1233.48     0  01:36      1.76    1.09    1.00
  HS02004807HS02004802 CONDUIT   1233.66     0  01:34      1.76    2.36    1.00
  HS02004817HS02004807 CONDUIT   1197.03     0  01:33      1.71    0.71    1.00
  HS02004817HS02004824 CONDUIT   1196.40     0  01:31      1.71    0.54    1.00
  HS02004824HS02004830 CONDUIT    883.17     0  01:23      1.26    1.16    1.00
  HS02004830HS02004837 CONDUIT    881.31     0  01:23      1.40    0.88    1.00
  HS02004837HS02004842 CONDUIT   1092.81     0  01:24      1.56    0.65    1.00
  HS02004842HS02004848 CONDUIT   1092.39     0  01:24      1.77    0.64    1.00
  HS02004848HS02004852 CONDUIT   1466.17     0  01:24      2.20    1.65    1.00
  HS02004852HS02004856 CONDUIT   1439.71     0  01:24      2.10    1.65    1.00
  HS02004856HS02004862 CONDUIT   1536.24     0  01:24      2.28    1.53    1.00
  HS02004862HS02004870 CONDUIT   1742.19     0  01:24      2.68    1.88    1.00
  HS02004870HS02004876 CONDUIT   1238.28     0  01:32      1.77    0.82    1.00
  HS02004876HS02004881 CONDUIT   1518.41     0  01:31      2.17   16.15    1.00
  HS02004881HS02006253 CONDUIT   1661.01     0  01:27      2.37    0.32    1.00
  HS02004901HS02004770 CONDUIT    265.79     0  01:54      0.38    1.00    1.00
  WS02001211WS02001212 CONDUIT    326.26     0  01:30      0.54    0.25    0.76
  WS02001212WS02001213 CONDUIT    411.14     0  01:27      1.04    0.63    0.68
  WS02001213WS02003059 CONDUIT    380.25     0  01:27      0.54    0.63    0.95
  WS02003059WS02003060 CONDUIT    502.45     0  01:27      0.88    0.33    0.85
  WS02003060WS02003069 CONDUIT   1614.83     0  01:32      2.42    0.63    0.63
  WS02003066WSF200     CONDUIT   1433.73     0  01:27      3.77    0.24    0.42
  WS02003067WS02003066 CONDUIT   1415.67     0  01:27      2.27    0.45    0.59
  WS02003069WS02003072 CONDUIT   1598.20     0  01:33      1.93    0.77    0.69
  WS02003072WS02003073 CONDUIT   1597.23     0  01:33      2.10    3.45    0.64
  WS02004138WS02004139 CONDUIT    193.16     0  00:29      2.13    0.04    0.46
  WS02004139WS02001211 CONDUIT    362.41     0  01:30      0.54    0.46    0.65
  WS02004401WS02004402 CONDUIT   1424.10     0  01:26      1.81    1.71    1.00
  WS02004402WS02004403 CONDUIT   1423.33     0  01:26      1.81    2.04    1.00
  WS02004403WS02004404 CONDUIT   1422.49     0  01:25      1.81    1.03    1.00
  WS02004404WS02004405 CONDUIT   1423.33     0  01:25      1.81   13.94    1.00
  WS02004405WS02004406 CONDUIT   1424.51     0  01:25      1.81    2.81    1.00
  WS02004406WS02004407 CONDUIT   1424.23     0  01:25      2.27    0.64    1.00
  WS02004407WS02004409 CONDUIT   1426.11     0  01:23      2.72    0.51    1.00
  WS02004409WS02004410 CONDUIT   1400.50     0  01:23      2.24    1.81    1.00
  WS02004410WS02004411 CONDUIT   1404.61     0  01:24      2.43    1.92    1.00
  WS02004411WS02004412 CONDUIT   1387.54     0  01:27      2.54    1.97    1.00
  WS02004412WS02004413 CONDUIT   1391.13     0  01:27      2.55    0.93    1.00
  WS02004413WS02003067 CONDUIT   1393.69     0  01:27      2.12    0.60    0.78
  WS02006109WS02006110 CONDUIT   1279.98     0  01:22      2.55    2.46    1.00
  WS02006110WS02006113 CONDUIT   1279.67     0  01:22      2.55    1.16    1.00
  WS02006111WS02006112 CONDUIT   1270.59     0  01:22      2.53    0.60    1.00
  WS02006112WS02006115 CONDUIT   1431.63     0  01:22      1.82    0.85    1.00
  WS02006113WS02006111 CONDUIT   1276.68     0  01:22      2.81    1.53    1.00
  WS02006115WS02006116 CONDUIT   1437.33     0  01:22      1.83    1.84    1.00
  WS02006116WS02004401 CONDUIT   1424.86     0  01:26      1.81    1.96    1.00
  WS02006228WS02006109 CONDUIT   1290.39     0  01:26      2.57    5.64    1.00
  WS02006229WS02006228 CONDUIT   1290.75     0  01:26      2.57    4.28    1.00
  WS02006230WS02006229 CONDUIT   1018.79     0  01:25      2.65   22.67    1.00
  WS02006231WS02006230 CONDUIT    502.06     0  03:26      1.30    7.62    1.00
  WS02006232WS02006231 CONDUIT    501.95     0  03:26      1.30    1.05    1.00
  WS02006234WS02006232 CONDUIT    502.64     0  03:26      1.31    1.02    1.00
  WS02006235WS02006234 CONDUIT    529.10     0  03:25      1.37    5.58    1.00
  WS02006238WS02006235 CONDUIT    426.45     0  03:40      1.48    0.95    1.00
  WS02006239WS02006238 CONDUIT    425.83     0  03:40      1.11    1.36    1.00
  WS02006240WS02006239 CONDUIT    425.15     0  03:40      1.13    1.34    1.00
  WS02006242WS02006240 CONDUIT    425.22     0  03:40      1.10    1.69    1.00
  WS02006243WS02006242 CONDUIT    425.31     0  03:40      1.15    0.91    1.00
  WS02006245WS02006243 CONDUIT    425.40     0  03:40      1.17    1.26    1.00
  WS02006247WS02006245 CONDUIT    425.39     0  03:40      1.13    3.37    1.00
  WS02006248WS02006247 CONDUIT    425.28     0  03:40      1.17    0.93    1.00
  WS02006249WS02006248 CONDUIT    429.27     0  01:20      1.22    2.35    1.00
  WS02006251WS02006249 CONDUIT   1381.08     0  01:27      3.59    3.98    1.00
  WS02006252WS02006251 CONDUIT    410.49     0  01:22      4.08    1.51    1.00
  WS02006253WS02006251 CONDUIT   1715.39     0  01:27      4.46    5.14    1.00
  WS02006256WS02006235 CONDUIT    247.65     0  01:19      4.07    2.62    1.00
  WS02006280WS02006229 CONDUIT   2310.59     0  01:26      4.45    0.49    1.00
  WS02006284WS02006280 CONDUIT   2308.94     0  01:26      2.98    0.97    1.00
  WS02006287WS02006284 CONDUIT   2308.44     0  01:26      2.94    1.07    1.00
  WSF200WS02003060     CONDUIT   1571.89     0  01:26      3.39    0.35    0.53
  YS02001580YS02001583 CONDUIT     58.37     0  01:25      0.46    0.23    1.00
  YS02001583YS02001586 CONDUIT     85.73     0  01:25      0.35    0.13    1.00
  YS02001586YS02001590 CONDUIT    319.04     0  01:46      1.25    0.56    1.00
  YS02001590YS02001593 CONDUIT    319.48     0  01:46      1.13    2.01    1.00
  YS02001593YS02001596 CONDUIT    318.00     0  02:09      1.74    0.50    1.00
  YS02001596YS02001600 CONDUIT    318.23     0  01:46      1.27    0.62    1.00
  YS02001600YS02001601 CONDUIT    318.41     0  01:46      1.13    0.55    1.00
  YS02001601YS02001602 CONDUIT    499.76     0  01:25      1.77    1.81    1.00
  YS02001602YS02001605 CONDUIT    500.00     0  01:25      1.77   10.58    1.00
  YS02001605YS02001607 CONDUIT    499.38     0  01:25      1.77    2.74    1.00
  YS02001607YS02001610 CONDUIT    499.35     0  01:25      0.68    0.47    1.00
  YS02001610YS02001613 CONDUIT    620.70     0  02:22      0.79    0.72    1.00
  YS02001613YS02001616 CONDUIT    621.17     0  02:22      0.79    0.53    1.00
  YS02001616YS02001619 CONDUIT    632.95     0  02:22      0.81    1.10    1.00
  YS02001619YS02001622 CONDUIT   1072.75     0  02:22      1.51    1.58    1.00
  YS02001622YS02001625 CONDUIT   1053.69     0  02:18      1.34    0.56    1.00
  YS02001625YS02001629 CONDUIT    880.98     0  01:30      1.12    0.42    1.00
  YS02001629YS02163301 CONDUIT   1138.86     0  02:42      1.45    1.40    1.00
  YS02001633YS02163601 CONDUIT   1201.84     0  01:30      1.53    1.26    1.00
  YS02001641YS02001644 CONDUIT   1198.55     0  01:30      1.53    3.87    1.00
  YS02001644YS02001647 CONDUIT   1468.82     0  01:30      1.98    0.86    1.00
  YS02001647YS02001649 CONDUIT   1471.83     0  01:31      2.23    0.78    1.00
  YS02001649YS02001757 CONDUIT   1701.13     0  01:41      2.30    1.03    1.00
  YS02001652YS02001649 CONDUIT   2429.17     0  02:39      3.09    1.20    1.00
  YS02001655YS02001652 CONDUIT   2429.09     0  02:30      3.09    1.18    1.00
  YS02001658YS02001655 CONDUIT   2731.29     0  02:36      3.48    1.16    1.00
  YS02001661YS02001658 CONDUIT   2783.63     0  02:32      3.54    1.09    1.00
  YS02001664YS02001661 CONDUIT   2783.65     0  02:39      3.54    0.87    1.00
  YS02001745YS02001748 CONDUIT   3116.76     0  02:36      3.97    1.20    1.00
  YS02001748YS02001751 CONDUIT   2353.31     0  02:37      3.00    1.19    1.00
  YS02001751YS02001754 CONDUIT   2353.32     0  02:37      3.00    1.13    1.00
  YS02001754YS02001757 CONDUIT   2353.58     0  02:37      3.00    0.95    1.00
  YS02001757CaochengTiaoxuchi CONDUIT   2605.01     0  01:55      3.32    1.13    1.00
  YS02001759YS02001757 CONDUIT   1432.76     0  02:39      1.82    1.02    1.00
  YS02001762YS02001759 CONDUIT    722.62     0  02:39      0.92    0.83    1.00
  YS02001765YS02001762 CONDUIT    722.50     0  02:39      0.92    0.68    1.00
  YS02001767YS02001765 CONDUIT    722.51     0  02:39      0.92    0.91    1.00
  YS02001770YS02001767 CONDUIT    722.87     0  02:39      0.92    2.86    1.00
  YS02001774YS02001770 CONDUIT    877.04     0  02:22      1.12    0.56    1.00
  YS02001779YS02001774 CONDUIT    851.73     0  02:23      1.08    0.43    1.00
  YS02001783YS02001784 CONDUIT   1321.42     0  02:39      2.63    1.82    1.00
  YS02001784YS02001785 CONDUIT   1323.59     0  02:39      2.63    3.08    1.00
  YS02001786YS02001788 CONDUIT   1324.51     0  02:39      2.74    2.55    0.92
  YS02001788YS02001790 CONDUIT   1328.91     0  02:35      2.90    0.98    0.87
  YS02001790YS02001791 CONDUIT   1374.09     0  02:36      3.53    1.50    0.73
  YS02001791YS02001793 CONDUIT   1360.32     0  02:37      6.91    0.58    0.44
  YS02001793JiankangQianchi CONDUIT   1379.04     0  02:24      2.73    0.11    0.65
  YS02001882YS02001884 CONDUIT     32.30     0  01:16      0.30    0.04    1.00
  YS02001884YS02001887 CONDUIT     64.61     0  01:15      0.24    0.09    1.00
  YS02001887YS02001890 CONDUIT   2052.03     0  02:38      2.61    3.51    1.00
  YS02001890YS02001895 CONDUIT    520.70     0  02:39      0.66    0.24    1.00
  YS02001895YS02001898 CONDUIT    518.92     0  02:39      0.66    0.90    1.00
  YS02001898YS02001901 CONDUIT    518.28     0  02:25      0.66    0.33    1.00
  YS02001901YS02001904 CONDUIT    526.24     0  02:22      0.67    0.82    1.00
  YS02001904YS02001907 CONDUIT    524.03     0  02:22      0.67    0.18    1.00
  YS02001907YS02006553 CONDUIT   2161.55     0  02:39      2.40    2.54    1.00
  YS02001910YS02001907 CONDUIT   1993.02     0  02:23      2.54    1.12    1.00
  YS02001915YS02001910 CONDUIT   1993.17     0  02:23      2.54    0.99    1.00
  YS02001918YS02001915 CONDUIT   1221.69     0  02:41      1.56    0.67    1.00
  YS02001920YS02001918 CONDUIT   1681.63     0  02:39      2.14    1.63    1.00
  YS02001923YS02001920 CONDUIT   1679.22     0  02:38      2.14    0.75    1.00
  YS02001926YS02001923 CONDUIT   1678.99     0  02:38      2.14    2.40    1.00
  YS02001929YS02001926 CONDUIT   1678.84     0  02:39      2.14    0.80    1.00
  YS02006553YS02006556 CONDUIT   2160.55     0  02:39      2.75    1.85    1.00
  YS02006556YS02006558 CONDUIT   2161.54     0  02:39      2.75    1.71    1.00
  YS02006558YS02006561 CONDUIT   1322.27     0  02:39      4.68    2.92    1.00
  YS02006561YS02001783 CONDUIT   1322.02     0  02:39      2.63    0.68    1.00
  YS02163301YS02001633 CONDUIT   1138.80     0  02:40      1.45    1.07    1.00
  YS02163601YS02164001 CONDUIT   1201.23     0  01:30      1.53    1.06    1.00
  YS02164001YS02001641 CONDUIT   1200.45     0  01:30      1.53    1.64    1.00
  YSB1154YSB6556       CONDUIT    531.89     0  01:28      1.38    0.96    1.00
  YSB1171HS02004479    CONDUIT    616.44     0  01:23      1.23    0.41    1.00
  YSB1174YSB1171       CONDUIT    462.58     0  01:26      1.20    0.71    1.00
  YSB6556YSB1171       CONDUIT    533.27     0  01:28      1.39    0.55    1.00
  CC-R1                PUMP       683.00     0  00:00              1.00
  CC-R2                PUMP       683.00     0  00:00              1.00
  CC-S1                PUMP       200.00     0  00:00              1.00
  CC-S2                PUMP       200.00     0  00:00              1.00
  JK-R1                PUMP      1000.00     0  00:00              1.00
  JK-R2                PUMP      1000.00     0  00:00              1.00
  JK-S                 PUMP       300.00     0  00:00              1.00
  XR-1                 PUMP        95.00     0  00:00              1.00
  XR-2                 PUMP        95.00     0  00:00              1.00
  XR-3                 PUMP        95.00     0  00:00              1.00
  XR-4                 PUMP        95.00     0  00:00              1.00
  
  
  ***************************
  Flow Classification Summary
  ***************************
  
  -------------------------------------------------------------------------------------
                      Adjusted    ---------- Fraction of Time in Flow Class ---------- 
                       /Actual         Up    Down  Sub   Sup   Up    Down  Norm  Inlet 
  Conduit               Length    Dry  Dry   Dry   Crit  Crit  Crit  Crit  Ltd   Ctrl  
  -------------------------------------------------------------------------------------
  1                       1.00   0.00  0.00  0.00  0.00  1.00  0.00  0.00  0.39  0.00
  HS02004478WS02006287    1.00   0.06  0.00  0.00  0.62  0.32  0.00  0.00  0.58  0.00
  HS02004479HS02004480    1.00   0.02  0.00  0.00  0.98  0.00  0.00  0.00  0.10  0.00
  HS02004480HS02004478    1.00   0.05  0.00  0.00  0.55  0.00  0.00  0.40  0.00  0.00
  HS02004770HS02004777    1.00   0.00  0.05  0.00  0.95  0.00  0.00  0.00  0.02  0.00
  HS02004777HS02004785    1.00   0.00  0.00  0.00  1.00  0.00  0.00  0.00  0.10  0.00
  HS02004785HS02004788    1.00   0.00  0.00  0.00  1.00  0.00  0.00  0.00  0.00  0.00
  HS02004788HS02004792    1.00   0.00  0.00  0.00  1.00  0.00  0.00  0.00  0.87  0.00
  HS02004792HS02004799    1.00   0.00  0.00  0.00  1.00  0.00  0.00  0.00  0.80  0.00
  HS02004799HS02004480    1.00   0.00  0.01  0.00  0.93  0.00  0.05  0.00  0.00  0.00
  HS02004802HS02004478    1.00   0.05  0.00  0.00  0.95  0.00  0.00  0.00  0.02  0.00
  HS02004807HS02004802    1.00   0.05  0.00  0.00  0.94  0.00  0.00  0.01  0.00  0.00
  HS02004817HS02004807    1.00   0.00  0.05  0.00  0.95  0.00  0.00  0.00  0.01  0.00
  HS02004817HS02004824    1.00   0.00  0.00  0.00  1.00  0.00  0.00  0.00  0.77  0.00
  HS02004824HS02004830    1.00   0.00  0.00  0.00  1.00  0.00  0.00  0.00  0.00  0.00
  HS02004830HS02004837    1.00   0.00  0.00  0.00  1.00  0.00  0.00  0.00  0.83  0.00
  HS02004837HS02004842    1.00   0.00  0.00  0.00  1.00  0.00  0.00  0.00  0.11  0.00
  HS02004842HS02004848    1.00   0.00  0.05  0.00  0.95  0.00  0.00  0.00  0.56  0.00
  HS02004848HS02004852    1.00   0.05  0.00  0.00  0.95  0.00  0.00  0.00  0.70  0.00
  HS02004852HS02004856    1.00   0.05  0.00  0.00  0.95  0.00  0.00  0.00  0.64  0.00
  HS02004856HS02004862    1.00   0.00  0.07  0.00  0.93  0.00  0.00  0.00  0.72  0.00
  HS02004862HS02004870    1.00   0.00  0.00  0.00  1.00  0.00  0.00  0.00  0.02  0.00
  HS02004870HS02004876    1.00   0.00  0.00  0.00  0.99  0.00  0.00  0.00  0.82  0.00
  HS02004876HS02004881    1.00   0.01  0.00  0.00  0.76  0.23  0.00  0.00  0.00  0.00
  HS02004881HS02006253    1.00   0.02  0.00  0.00  0.63  0.00  0.00  0.35  0.26  0.00
  HS02004901HS02004770    1.00   0.05  0.00  0.00  0.95  0.00  0.00  0.00  0.00  0.00
  WS02001211WS02001212    1.00   0.00  0.01  0.00  0.99  0.00  0.00  0.00  0.00  0.00
  WS02001212WS02001213    1.00   0.01  0.00  0.00  0.56  0.00  0.43  0.00  0.00  0.00
[...]
  WSF200WS02003060        1.00   0.00  0.16  0.00  0.29  0.55  0.00  0.00  0.44  0.00
  YS02001580YS02001583    1.00   0.15  0.34  0.00  0.51  0.00  0.00  0.00  0.59  0.00
  YS02001583YS02001586    1.00   0.23  0.20  0.00  0.57  0.00  0.00  0.00  0.59  0.00
  YS02001586YS02001590    1.00   0.05  0.00  0.00  0.72  0.02  0.00  0.21  0.28  0.00
  YS02001590YS02001593    1.00   0.05  0.00  0.00  0.41  0.00  0.54  0.00  0.00  0.00
  YS02001593YS02001596    1.00   0.05  0.00  0.00  0.45  0.01  0.00  0.48  0.01  0.00
  YS02001596YS02001600    1.00   0.05  0.00  0.00  0.54  0.01  0.00  0.40  0.03  0.00
  YS02001600YS02001601    1.00   0.05  0.00  0.00  0.95  0.00  0.00  0.00  0.54  0.00
  YS02001601YS02001602    1.00   0.05  0.00  0.00  0.95  0.00  0.00  0.00  0.00  0.00
  YS02001602YS02001605    1.00   0.05  0.00  0.00  0.95  0.00  0.00  0.00  0.00  0.00
  YS02001605YS02001607    1.00   0.05  0.00  0.00  0.95  0.00  0.00  0.00  0.00  0.00
  YS02001607YS02001610    1.00   0.05  0.00  0.00  0.95  0.00  0.00  0.00  0.00  0.00
  YS02001610YS02001613    1.00   0.05  0.00  0.00  0.95  0.00  0.00  0.00  0.00  0.00
  YS02001613YS02001616    1.00   0.05  0.00  0.00  0.95  0.00  0.00  0.00  0.00  0.00
  YS02001616YS02001619    1.00   0.05  0.00  0.00  0.95  0.00  0.00  0.00  0.00  0.00
  YS02001619YS02001622    1.00   0.05  0.00  0.00  0.94  0.02  0.00  0.00  0.29  0.00
  YS02001622YS02001625    1.00   0.05  0.00  0.00  0.95  0.00  0.00  0.00  0.01  0.00
  YS02001625YS02001629    1.00   0.05  0.01  0.00  0.51  0.00  0.43  0.00  0.00  0.00
  YS02001629YS02163301    1.00   0.05  0.00  0.00  0.95  0.00  0.00  0.00  0.00  0.00
  YS02001633YS02163601    1.00   0.00  0.00  0.00  1.00  0.00  0.00  0.00  0.13  0.00
  YS02001641YS02001644    1.00   0.00  0.00  0.00  1.00  0.00  0.00  0.00  0.01  0.00
  YS02001644YS02001647    1.00   0.00  0.05  0.00  0.95  0.00  0.00  0.00  0.00  0.00
  YS02001647YS02001649    1.00   0.00  0.05  0.00  0.79  0.15  0.00  0.00  0.54  0.00
  YS02001649YS02001757    1.00   0.00  0.00  0.00  0.82  0.18  0.00  0.00  0.39  0.00
  YS02001652YS02001649    1.00   0.00  0.00  0.00  0.99  0.01  0.00  0.00  0.64  0.00
  YS02001655YS02001652    1.00   0.00  0.00  0.00  0.54  0.01  0.00  0.46  0.03  0.00
  YS02001658YS02001655    1.00   0.00  0.05  0.00  0.82  0.13  0.00  0.00  0.56  0.00
  YS02001661YS02001658    1.00   0.05  0.00  0.00  0.68  0.27  0.00  0.00  0.59  0.00
  YS02001664YS02001661    1.00   0.05  0.00  0.00  0.80  0.15  0.00  0.00  0.74  0.00
  YS02001745YS02001748    1.00   0.00  0.00  0.00  0.41  0.01  0.00  0.58  0.04  0.00
  YS02001748YS02001751    1.00   0.00  0.00  0.00  0.88  0.12  0.00  0.00  0.67  0.00
  YS02001751YS02001754    1.00   0.00  0.00  0.00  0.50  0.01  0.00  0.49  0.03  0.00
  YS02001754YS02001757    1.00   0.00  0.00  0.00  1.00  0.00  0.00  0.00  0.68  0.00
  YS02001757CaochengTiaoxuchi    1.00   0.00  0.00  0.00  1.00  0.00  0.00  0.00  0.55  0.00
  YS02001759YS02001757    1.00   0.00  0.00  0.00  1.00  0.00  0.00  0.00  0.63  0.00
  YS02001762YS02001759    1.00   0.00  0.00  0.00  1.00  0.00  0.00  0.00  0.01  0.00
  YS02001765YS02001762    1.00   0.00  0.00  0.00  1.00  0.00  0.00  0.00  0.62  0.00
  YS02001767YS02001765    1.00   0.00  0.00  0.00  1.00  0.00  0.00  0.00  0.00  0.00
  YS02001770YS02001767    1.00   0.00  0.00  0.00  1.00  0.00  0.00  0.00  0.00  0.00
  YS02001774YS02001770    1.00   0.00  0.05  0.00  0.81  0.00  0.15  0.00  0.01  0.00
  YS02001779YS02001774    1.00   0.00  0.00  0.00  1.00  0.00  0.00  0.00  0.65  0.00
  YS02001783YS02001784    1.00   0.00  0.06  0.00  0.94  0.00  0.00  0.00  0.54  0.00
  YS02001784YS02001785    1.00   0.00  0.00  0.00  1.00  0.00  0.00  0.00  0.13  0.00
  YS02001786YS02001788    1.00   0.00  0.00  0.00  0.73  0.27  0.00  0.00  0.00  0.00
  YS02001788YS02001790    1.00   0.00  0.00  0.00  0.19  0.81  0.00  0.00  0.74  0.00
  YS02001790YS02001791    1.00   0.00  0.00  0.00  0.01  0.99  0.00  0.00  0.10  0.00
  YS02001791YS02001793    1.00   0.00  0.00  0.00  0.00  1.00  0.00  0.00  0.02  0.00
  YS02001793JiankangQianchi    1.00   0.00  0.00  0.00  0.79  0.21  0.00  0.00  0.94  0.00
  YS02001882YS02001884    1.00   0.05  0.00  0.00  0.95  0.00  0.00  0.00  0.00  0.00
  YS02001884YS02001887    1.00   0.03  0.02  0.00  0.96  0.00  0.00  0.00  0.00  0.00
  YS02001887YS02001890    1.00   0.00  0.00  0.00  0.99  0.00  0.01  0.00  0.00  0.00
  YS02001890YS02001895    1.00   0.00  0.05  0.00  0.95  0.00  0.00  0.00  0.00  0.00
  YS02001895YS02001898    1.00   0.05  0.00  0.00  0.94  0.00  0.00  0.00  0.00  0.00
  YS02001898YS02001901    1.00   0.05  0.00  0.00  0.95  0.00  0.00  0.00  0.00  0.00
  YS02001901YS02001904    1.00   0.05  0.00  0.00  0.95  0.00  0.00  0.00  0.00  0.00
  YS02001904YS02001907    1.00   0.00  0.05  0.00  0.95  0.00  0.00  0.00  0.00  0.00
  YS02001907YS02006553    1.00   0.00  0.01  0.00  0.99  0.00  0.00  0.00  0.00  0.00
  YS02001910YS02001907    1.00   0.00  0.00  0.00  0.99  0.00  0.00  0.01  0.11  0.00
  YS02001915YS02001910    1.00   0.00  0.00  0.00  0.99  0.01  0.00  0.00  0.11  0.00
  YS02001918YS02001915    1.00   0.00  0.00  0.00  0.99  0.01  0.00  0.00  0.64  0.00
  YS02001920YS02001918    1.00   0.00  0.00  0.00  1.00  0.00  0.00  0.00  0.00  0.00
  YS02001923YS02001920    1.00   0.00  0.00  0.00  1.00  0.00  0.00  0.00  0.79  0.00
  YS02001926YS02001923    1.00   0.00  0.03  0.00  0.28  0.00  0.69  0.00  0.00  0.00
  YS02001929YS02001926    1.00   0.00  0.05  0.00  0.95  0.00  0.00  0.00  0.70  0.00
  YS02006553YS02006556    1.00   0.01  0.00  0.00  0.99  0.00  0.00  0.00  0.03  0.00
  YS02006556YS02006558    1.00   0.00  0.00  0.00  1.00  0.00  0.00  0.00  0.00  0.00
  YS02006558YS02006561    1.00   0.06  0.00  0.00  0.27  0.68  0.00  0.00  0.11  0.00
  YS02006561YS02001783    1.00   0.06  0.00  0.00  0.34  0.60  0.00  0.00  0.61  0.00
  YS02163301YS02001633    1.00   0.00  0.05  0.00  0.95  0.00  0.00  0.00  0.00  0.00
  YS02163601YS02164001    1.00   0.00  0.03  0.00  0.97  0.00  0.00  0.00  0.00  0.00
  YS02164001YS02001641    1.00   0.00  0.03  0.00  0.97  0.00  0.00  0.00  0.05  0.00
  YSB1154YSB6556          1.00   0.05  0.00  0.00  0.95  0.00  0.00  0.00  0.01  0.00
  YSB1171HS02004479       1.00   0.02  0.00  0.00  0.98  0.00  0.00  0.01  0.09  0.00
  YSB1174YSB1171          1.00   0.02  0.02  0.00  0.96  0.00  0.00  0.00  0.00  0.00
  YSB6556YSB1171          1.00   0.02  0.03  0.00  0.95  0.00  0.00  0.00  0.00  0.00
  
  
  *************************
  Conduit Surcharge Summary
  *************************
  
  ----------------------------------------------------------------------------
                                                           Hours        Hours 
                         --------- Hours Full --------   Above Full   Capacity
  Conduit                Both Ends  Upstream  Dnstream   Normal Flow   Limited
  ----------------------------------------------------------------------------
  HS02004478WS02006287        0.73      0.73      0.92      0.01         0.01
  HS02004479HS02004480        0.94      0.94      0.95      0.01         0.01
  HS02004480HS02004478        0.84      0.93      0.84      1.93         0.84
  HS02004770HS02004777        0.83      0.83      0.84      0.12         0.09
  HS02004777HS02004785        0.77      0.77      0.84      0.01         0.01
  HS02004785HS02004788        0.75      0.77      0.75      1.80         0.66
  HS02004788HS02004792        0.75      0.75      0.90      0.01         0.01
  HS02004792HS02004799        0.90      0.90      1.03      0.01         0.01
  HS02004799HS02004480        0.93      0.93      1.03      1.21         0.01
  HS02004802HS02004478        0.85      0.85      0.94      0.20         0.01
  HS02004807HS02004802        0.90      0.90      0.93      0.38         0.38
  HS02004817HS02004807        0.90      0.90      1.71      0.01         0.01
  HS02004817HS02004824        0.75      0.75      1.71      0.01         0.01
  HS02004824HS02004830        0.71      0.71      0.75      0.01         0.01
  HS02004830HS02004837        0.66      0.66      0.71      0.01         0.01
  HS02004837HS02004842        0.66      0.66      0.82      0.01         0.01
  HS02004842HS02004848        0.64      0.64      0.82      0.01         0.01
  HS02004848HS02004852        0.64      0.64      0.67      0.02         0.01
  HS02004852HS02004856        0.67      0.67      0.69      0.02         0.01
  HS02004856HS02004862        0.65      0.65      0.70      0.02         0.01
  HS02004862HS02004870        0.69      0.70      0.72      0.29         0.29
  HS02004870HS02004876        0.72      0.72      0.81      0.01         0.01
  HS02004876HS02004881        0.78      0.81      0.78      1.81         0.78
  HS02004881HS02006253        0.78      0.78      2.55      0.01         0.01
  HS02004901HS02004770        0.83      0.83      0.84      0.08         0.01
  WS02001213WS02003059        0.01      0.01      0.01      0.01         0.01
  WS02003059WS02003060        0.01      0.01      0.01      0.01         0.01
  WS02003072WS02003073        0.01      0.01      0.01      3.08         0.01
  WS02004401WS02004402        1.88      1.88      1.91      1.82         1.75
  WS02004402WS02004403        1.91      1.91      1.92      1.90         1.87
  WS02004403WS02004404        1.92      1.92      2.30      0.03         0.08
  WS02004404WS02004405        2.25      2.30      2.25      3.24         2.25
  WS02004405WS02004406        2.15      2.25      2.15      2.41         2.15
  WS02004406WS02004407        0.02      0.02      2.15      0.01         0.01
  WS02004407WS02004409        0.02      0.02      1.42      0.01         0.01
  WS02004409WS02004410        1.29      1.42      1.29      1.84         1.29
  WS02004410WS02004411        1.19      1.29      1.19      1.86         1.18
  WS02004411WS02004412        1.03      1.19      1.03      1.88         1.03
  WS02004412WS02004413        1.03      1.03      1.73      0.01         0.01
  WS02004413WS02003067        0.01      0.01      1.73      0.01         0.01
  WS02006109WS02006110        2.33      2.33      2.96      2.34         0.01
  WS02006110WS02006113        1.74      1.74      2.95      0.38         0.01
  WS02006111WS02006112        1.70      1.70      3.02      0.01         0.01
  WS02006112WS02006115        1.84      1.84      2.53      0.01         0.01
  WS02006113WS02006111        1.72      1.74      1.72      1.81         1.71
  WS02006115WS02006116        1.84      1.84      1.84      1.87         1.83
  WS02006116WS02004401        1.88      1.88      1.88      1.89         1.85
  WS02006228WS02006109        2.94      2.96      2.94      3.05         2.94
  WS02006229WS02006228        2.94      2.95      2.94      3.01         2.94
  WS02006230WS02006229        2.97      2.98      2.97      3.10         1.57
  WS02006231WS02006230        2.31      2.31      2.36      2.93         1.38
  WS02006232WS02006231        2.32      2.32      2.92      0.22         0.21
  WS02006234WS02006232        2.88      2.88      2.92      0.09         0.12
  WS02006235WS02006234        2.85      2.86      2.88      2.79         1.39
  WS02006238WS02006235        2.89      2.89      2.91      0.01         0.56
  WS02006239WS02006238        2.90      2.90      2.90      2.01         0.81
  WS02006240WS02006239        2.88      2.88      2.88      1.99         0.79
  WS02006242WS02006240        2.88      2.88      2.90      2.33         1.27
  WS02006243WS02006242        2.88      2.88      2.89      0.01         0.02
  WS02006245WS02006243        2.87      2.87      2.87      0.79         0.77
  WS02006247WS02006245        2.87      2.87      2.87      2.72         1.22
  WS02006248WS02006247        2.86      2.86      2.87      0.01         0.03
  WS02006249WS02006248        2.86      2.86      2.86      1.21         0.01
  WS02006251WS02006249        2.86      2.86      2.86      2.88         2.85
  WS02006252WS02006251        2.85      2.85      2.86      2.45         0.14
  WS02006253WS02006251        2.86      2.86      2.86      1.07         0.01
  WS02006256WS02006235        3.08      3.09      4.44      1.04         0.01
  WS02006280WS02006229        1.08      1.08      1.29      0.01         0.01
  WS02006284WS02006280        0.95      0.95      1.06      0.01         0.01
  WS02006287WS02006284        0.83      0.83      0.96      0.43         0.43
  YS02001580YS02001583        1.69      1.69      1.73      0.01         0.01
  YS02001583YS02001586        1.70      1.70      1.81      0.01         0.01
  YS02001586YS02001590        1.82      1.82      1.89      0.01         0.01
  YS02001590YS02001593        1.89      1.89      1.91      1.89         0.01
  YS02001593YS02001596        1.90      1.90      2.00      0.01         0.01
  YS02001596YS02001600        2.05      2.05      2.12      0.01         0.01
  YS02001600YS02001601        2.17      2.17      2.34      0.01         0.01
  YS02001601YS02001602        2.29      2.29      2.36      2.09         0.01
  YS02001602YS02001605        2.26      2.26      2.29      2.81         0.01
  YS02001605YS02001607        2.23      2.26      2.25      2.22         2.14
  YS02001607YS02001610        1.90      1.90      1.93      0.01         0.01
  YS02001610YS02001613        1.90      1.90      1.93      0.01         0.01
  YS02001613YS02001616        1.86      1.86      1.90      0.01         0.01
  YS02001616YS02001619        1.85      1.85      1.86      0.60         0.47
  YS02001619YS02001622        1.85      1.85      1.85      1.81         1.68
  YS02001622YS02001625        1.85      1.85      2.04      0.01         0.01
  YS02001625YS02001629        1.76      1.76      2.04      0.01         0.01
  YS02001629YS02163301        2.05      2.05      2.07      0.58         0.15
  YS02001633YS02163601        2.10      2.10      2.15      0.29         0.32
  YS02001641YS02001644        2.04      2.07      2.04      2.38         1.94
  YS02001644YS02001647        1.80      1.80      2.04      0.01         0.01
  YS02001647YS02001649        1.80      1.80      1.95      0.01         0.01
  YS02001649YS02001757        1.95      1.95      2.03      0.06         0.09
  YS02001652YS02001649        1.79      1.79      1.95      0.26         0.26
  YS02001655YS02001652        1.54      1.54      1.76      0.25         0.25
  YS02001658YS02001655        1.21      1.21      1.54      0.21         0.21
  YS02001661YS02001658        0.62      0.62      1.21      0.19         0.19
  YS02001664YS02001661        0.39      0.39      0.76      0.01         0.01
  YS02001745YS02001748        0.40      0.40      1.09      0.05         0.05
  YS02001748YS02001751        1.17      1.17      1.43      0.11         0.11
  YS02001751YS02001754        1.43      1.43      1.70      0.10         0.10
  YS02001754YS02001757        1.75      1.75      2.03      0.01         0.01
  YS02001757CaochengTiaoxuchi        2.03      2.03      2.59      0.94         0.94
  YS02001759YS02001757        1.95      1.95      2.03      0.08         0.02
  YS02001762YS02001759        1.91      1.91      1.95      0.01         0.01
  YS02001765YS02001762        1.87      1.87      1.91      0.01         0.01
  YS02001767YS02001765        1.84      1.84      1.87      0.01         0.01
  YS02001770YS02001767        1.84      1.84      1.84      1.39         0.93
  YS02001774YS02001770        1.82      1.82      1.90      0.01         0.01
  YS02001779YS02001774        1.67      1.67      1.90      0.01         0.01
  YS02001783YS02001784        1.51      1.54      1.51      1.74         1.51
  YS02001784YS02001785        1.33      1.51      1.33      1.87         1.33
  YS02001786YS02001788        0.01      1.33      0.01      1.82         0.01
  YS02001790YS02001791        0.01      0.01      0.01      1.48         0.01
  YS02001793JiankangQianchi        0.01      0.01      7.99      0.01         0.01
  YS02001882YS02001884        1.45      1.45      1.47      0.01         0.01
  YS02001884YS02001887        1.51      1.51      1.53      0.01         0.01
  YS02001887YS02001890        1.55      1.55      1.56      0.65         0.01
  YS02001890YS02001895        1.43      1.43      1.59      0.01         0.01
  YS02001895YS02001898        1.42      1.42      1.43      0.01         0.01
  YS02001898YS02001901        1.44      1.44      1.51      0.01         0.01
  YS02001901YS02001904        1.49      1.49      1.51      0.01         0.01
  YS02001904YS02001907        1.49      1.49      1.81      0.01         0.01
  YS02001907YS02006553        1.88      1.88      1.91      0.31         0.32
  YS02001910YS02001907        1.58      1.58      1.80      0.46         0.46
  YS02001915YS02001910        1.45      1.45      1.58      0.01         0.04
  YS02001918YS02001915        1.31      1.31      1.45      0.01         0.01
  YS02001920YS02001918        1.31      1.31      1.33      0.31         0.01
  YS02001923YS02001920        1.25      1.25      1.33      0.01         0.01
  YS02001926YS02001923        0.62      0.62      0.67      0.45         0.01
  YS02001929YS02001926        0.47      0.47      0.67      0.01         0.01
  YS02006553YS02006556        1.71      1.71      1.81      0.26         0.26
  YS02006556YS02006558        1.77      1.77      1.82      0.25         0.01
  YS02006558YS02006561        1.36      1.69      1.36      1.86         1.36
  YS02006561YS02001783        1.27      1.27      1.54      0.01         0.01
  YS02163301YS02001633        2.07      2.07      2.12      0.34         0.01
  YS02163601YS02164001        2.06      2.06      2.15      0.15         0.01
  YS02164001YS02001641        2.06      2.06      2.07      1.07         0.98
  YSB1154YSB6556              0.98      0.98      1.23      0.01         0.01
  YSB1171HS02004479           0.88      0.88      1.23      0.01         0.01
  YSB1174YSB1171              1.09      1.09      1.62      0.01         0.01
  YSB6556YSB1171              0.98      0.98      1.75      0.01         0.01
  
  
  ***************
  Pumping Summary
  ***************
  
  ---------------------------------------------------------------------------------------------------------
                                                  Min       Avg       Max     Total     Power    % Time Off
                        Percent   Number of      Flow      Flow      Flow    Volume     Usage    Pump Curve
  Pump                 Utilized   Start-Ups       LPS       LPS       LPS  10^6 ltr     Kw-hr    Low   High
  ---------------------------------------------------------------------------------------------------------
  CC-R1                   34.14           2      0.00    683.00    683.00     6.716    132.76    0.0   49.3
  CC-R2                   32.37           2      0.00    683.00    683.00     6.367    126.31    0.0   52.0
  CC-S1                   37.91           2      0.00    200.00    200.00     2.183     11.80    0.0   36.3
  CC-S2                   35.46           2      0.00    200.00    200.00     2.043     10.94    0.0   38.8
  JK-R1                   19.02          81      0.00   1000.00   1000.00     5.478     50.56    0.0    0.0
  JK-R2                    0.07           1      0.00   1000.00   1000.00     0.021      0.19    0.0    0.0
  JK-S                    25.50          12      0.00    300.00    300.00     2.203     35.58    0.0    0.0
  XR-1                    97.90           2      0.00     95.00     95.00     2.678      9.62    0.0    0.0
  XR-2                    93.97           2      0.00     95.00     95.00     2.571      8.79    0.0    0.0
  XR-3                     0.00           1      0.00     95.00     95.00     0.000      0.00    0.0    0.0
  XR-4                     0.00           1      0.00     95.00     95.00     0.000      0.00    0.0    0.0
  

  Analysis begun on:  Wed Aug  2 16:11:31 2023
  Analysis ended on:  Wed Aug  2 16:12:57 2023
  Total elapsed time: 00:01:26