
  OWA STORM WATER MANAGEMENT MODEL - VERSION v5.1.14 (OWA 2022-07-31)
  --------------------------------------------------------------

  WARNING 04: minimum elevation drop used for Conduit WS02004404WS02004405
  WARNING 03: negative offset ignored for Link YS02001904YS02001907
  
  *********************************************************
  NOTE: The summary statistics displayed in this report are
  based on results found at every computational time step,  
  not just on results from each reporting time step.
  *********************************************************
  
  ****************
  Analysis Options
  ****************
  Flow Units ............... LPS
  Process Models:
    Rainfall/Runoff ........ YES
    RDII ................... NO
    Snowmelt ............... NO
    Groundwater ............ NO
    Flow Routing ........... YES
    Ponding Allowed ........ NO
    Water Quality .......... NO
  Infiltration Method ...... HORTON
  Flow Routing Method ...... DYNWAVE
  Surcharge Method ......... EXTRAN
  Starting Date ............ 08/28/2015 08:00:00
  Ending Date .............. 08/28/2015 16:00:00
  Antecedent Dry Days ...... 8.0
  Report Time Step ......... 00:01:00
  Wet Time Step ............ 00:01:00
  Dry Time Step ............ 00:01:00
  Routing Time Step ........ 30.00 sec
  Variable Time Step ....... YES
  Maximum Trials ........... 8
  Number of Threads ........ 4
  Head Tolerance ........... 0.001500 m
  
  
  **************************        Volume         Depth
  Runoff Quantity Continuity     hectare-m            mm
  **************************     ---------       -------
  Initial LID Storage ......         0.049         1.488
  Total Precipitation ......         4.623       139.361
  Evaporation Loss .........         0.000         0.000
  Infiltration Loss ........         0.081         2.454
  Surface Runoff ...........         3.623       109.238
  Final Storage ............         0.968        29.185
  Continuity Error (%) .....        -0.020
  
  
  **************************        Volume        Volume
  Flow Routing Continuity        hectare-m      10^6 ltr
  **************************     ---------     ---------
  Dry Weather Inflow .......         0.025         0.251
  Wet Weather Inflow .......         3.623        36.232
  Groundwater Inflow .......         0.000         0.000
  RDII Inflow ..............         0.000         0.000
  External Inflow ..........         0.083         0.834
  External Outflow .........         2.077        20.768
  Flooding Loss ............         1.761        17.612
  Evaporation Loss .........         0.000         0.000
  Exfiltration Loss ........         0.000         0.000
  Initial Stored Volume ....         0.243         2.431
  Final Stored Volume ......         0.181         1.814
  Continuity Error (%) .....        -1.123
  
  
  *************************
  Highest Continuity Errors
  *************************
  Node YS02001884 (4.80%)
  Node YS02001583 (-4.71%)
  Node WS02006256 (-3.71%)
  Node WS02006252 (-1.99%)
  
  
  ***************************
  Time-Step Critical Elements
  ***************************
  Link WS02006238WS02006235 (30.78%)
  Link WS02004404WS02004405 (17.77%)
  Link YS02001791YS02001793 (16.42%)
  Link WS02003066WSF200 (8.23%)
  Link YS02006556YS02006558 (5.54%)
  
  
  ********************************
  Highest Flow Instability Indexes
  ********************************
  Link WS02006238WS02006235 (47)
  Link WS02006256WS02006235 (40)
  Link WS02006235WS02006234 (40)
  Link WS02006113WS02006111 (35)
  Link WS02006252WS02006251 (35)
  
  
  *************************
  Routing Time Step Summary
  *************************
  Minimum Time Step           :     0.00 sec
  Average Time Step           :     3.04 sec
  Maximum Time Step           :    30.00 sec
  Percent in Steady State     :     0.00
  Average Iterations per Step :     4.77
  Percent Not Converging      :    27.93
  
  
  ***************************
  Subcatchment Runoff Summary
  ***************************
  
  ------------------------------------------------------------------------------------------------------------------------------
                            Total      Total      Total      Total     Imperv       Perv      Total       Total     Peak  Runoff
                           Precip      Runon       Evap      Infil     Runoff     Runoff     Runoff      Runoff   Runoff   Coeff
  Subcatchment                 mm         mm         mm         mm         mm         mm         mm    10^6 ltr      LPS
  ------------------------------------------------------------------------------------------------------------------------------
  sub60                    139.36       0.00       0.00       1.45      93.74      11.46     107.87        1.42   960.35   0.774
  sub61                    139.36       0.00       0.00       2.23      93.65      17.14     112.93        2.07  1404.22   0.810
  sub62                    139.36       0.00       0.00       0.99      99.86       7.78     110.15        3.02  1951.45   0.790
  sub63                    139.36       0.00       0.00       4.09      80.21      28.99     111.34        2.53  1632.37   0.799
  sub64                    139.36       0.00       0.00       1.96      91.36      14.32     108.28        2.60  1615.76   0.777
  sub65                    139.36       0.00       0.00       1.80      98.62      13.09     113.80        3.13  1893.54   0.817
  sub66                    139.36       0.00       0.00       4.78      77.63      27.27     107.33        5.01  2565.48   0.770
  sub67                    139.36       0.00       0.00       0.98     102.35       8.01     112.64        2.10  1486.90   0.808
  sub68                    139.36       0.00       0.00       1.71      90.40      13.15     106.35        2.93  1933.52   0.763
  sub69                    139.36       0.00       0.00       1.59      93.80      14.97     111.21        4.12  2445.62   0.798
  sub70                    139.36       0.00       0.00       5.34      75.20      33.45     110.77        3.20  1483.22   0.795
  sub71                    139.36       0.00       0.00       0.91      90.73       7.06     101.13        2.64  1625.03   0.726
  sub72                    139.36       0.00       0.00       0.87      98.04       6.59     107.40        1.48   848.31   0.771
  

  ***********************
  LID Performance Summary
  ***********************

  --------------------------------------------------------------------------------------------------------------------
                                         Total      Evap     Infil   Surface    Drain    Initial     Final  Continuity
                                        Inflow      Loss      Loss   Outflow   Outflow   Storage   Storage       Error
  Subcatchment      LID Control             mm        mm        mm        mm        mm        mm        mm           %
  --------------------------------------------------------------------------------------------------------------------
  sub60             GreenRoof           139.36      0.00      0.00     11.73      0.00      7.05    134.68        0.00
  sub61             GreenRoof           139.36      0.00      0.00     11.73      0.00      7.05    134.68        0.00
  sub62             GreenRoof           139.36      0.00      0.00     11.73      0.00      7.05    134.68        0.00
  sub63             GreenRoof           139.36      0.00      0.00     11.73      0.00      7.05    134.68        0.00
  sub64             GreenRoof           139.36      0.00      0.00     11.73      0.00      7.05    134.68        0.00
  sub65             GreenRoof           139.36      0.00      0.00     11.73      0.00      7.05    134.68        0.00
  sub66             GreenRoof           139.36      0.00      0.00     11.73      0.00      7.05    134.68        0.00
  sub67             GreenRoof           139.36      0.00      0.00     11.73      0.00      7.05    134.68        0.00
  sub68             GreenRoof           139.36      0.00      0.00     11.73      0.00      7.05    134.68        0.00
  sub69             GreenRoof           139.36      0.00      0.00     11.73      0.00      7.05    134.68        0.00
  sub70             GreenRoof           139.36      0.00      0.00     11.73      0.00      7.05    134.68        0.00
  sub71             GreenRoof           139.36      0.00      0.00     11.73      0.00      7.05    134.68        0.00
  sub72             GreenRoof           139.36      0.00      0.00     11.73      0.00      7.05    134.68        0.00
  
  ******************
  Node Depth Summary
  ******************
  
  ---------------------------------------------------------------------------------
                                 Average  Maximum  Maximum  Time of Max    Reported
                                   Depth    Depth      HGL   Occurrence   Max Depth
  Node                 Type       Meters   Meters   Meters  days hr:min      Meters
  ---------------------------------------------------------------------------------
  WS02003060           JUNCTION     0.23     0.38     5.32     0  02:55        0.38
  WS02003066           JUNCTION     0.19     0.30     5.85     0  02:55        0.30
  WS02003067           JUNCTION     0.50     0.70     6.02     0  02:57        0.70
  WS02003069           JUNCTION     0.26     0.43     5.01     0  02:56        0.43
  WS02003072           JUNCTION     0.32     0.50     4.87     0  02:57        0.50
  WS02003073           JUNCTION     0.18     0.30     4.36     0  02:57        0.30
  WS02004401           JUNCTION     0.61     0.85     6.85     0  02:47        0.85
  WS02004402           JUNCTION     0.64     0.88     6.84     0  02:47        0.88
  WS02004403           JUNCTION     0.66     0.89     6.82     0  02:47        0.89
  WS02004404           JUNCTION     0.74     0.96     6.81     0  02:47        0.96
  WS02004405           JUNCTION     0.73     0.96     6.81     0  02:47        0.96
  WS02004406           JUNCTION     0.75     0.96     6.79     0  02:48        0.96
  WS02004407           JUNCTION     0.18     0.30     6.61     0  02:48        0.30
  WS02004409           JUNCTION     0.40     0.67     6.44     0  02:53        0.67
  WS02004410           JUNCTION     0.42     0.68     6.40     0  02:54        0.68
  WS02004411           JUNCTION     0.45     0.69     6.37     0  02:54        0.69
  WS02004412           JUNCTION     0.47     0.70     6.34     0  02:54        0.70
  WS02004413           JUNCTION     0.63     0.86     6.33     0  02:54        0.86
  WS02006109           JUNCTION     0.67     1.04     7.66     0  01:34        0.98
  WS02006110           JUNCTION     0.67     1.00     7.59     0  01:34        0.92
  WS02006111           JUNCTION     0.18     0.90     7.60     0  00:00        0.40
  WS02006112           JUNCTION     0.77     2.68     8.56     0  00:00        1.14
  WS02006113           JUNCTION     0.27     1.40     8.29     0  00:00        0.46
  WS02006115           JUNCTION     0.49     1.65     7.79     0  00:00        0.86
  WS02006116           JUNCTION     0.58     1.06     7.10     0  00:00        0.83
  WS02006228           JUNCTION     0.67     1.06     7.71     0  01:34        1.02
  WS02006229           JUNCTION     0.64     1.17     7.87     0  02:35        1.17
  WS02006230           JUNCTION     0.66     1.18     7.92     0  01:34        1.10
  WS02006231           JUNCTION     0.46     1.14     8.26     0  03:11        0.85
  WS02006232           JUNCTION     0.60     1.28     8.32     0  03:11        1.07
  WS02006234           JUNCTION     0.55     1.31     8.47     0  03:11        1.15
  WS02006235           JUNCTION     0.59     1.41     8.57     0  03:11        1.23
  WS02006238           JUNCTION     0.62     1.44     8.59     0  03:11        1.40
  WS02006239           JUNCTION     0.58     1.68     8.89     0  02:35        1.68
  WS02006240           JUNCTION     0.55     1.72     9.01     0  02:35        1.72
  WS02006242           JUNCTION     0.61     1.55     8.82     0  01:33        1.55
  WS02006243           JUNCTION     0.53     1.48     8.90     0  01:33        1.48
  WS02006245           JUNCTION     0.53     1.56     9.04     0  03:24        1.56
  WS02006247           JUNCTION     0.55     1.47     8.97     0  01:33        1.47
  WS02006248           JUNCTION     0.51     1.10     8.69     0  01:33        1.10
  WS02006249           JUNCTION     0.54     1.09     8.69     0  01:33        1.09
  WS02006251           JUNCTION     0.54     1.50     9.17     0  01:33        1.20
  WS02006252           JUNCTION     0.34     1.50     9.74     0  01:23        1.50
  WS02006256           JUNCTION     1.28     2.35     9.28     0  00:00        2.35
  WSF200               JUNCTION     0.17     0.29     5.52     0  02:51        0.29
  YS02001580           JUNCTION     0.19     1.05     9.59     0  01:36        0.78
  YS02001583           JUNCTION     0.22     1.14     9.64     0  01:36        0.82
  YS02001586           JUNCTION     0.34     1.13     9.30     0  01:36        1.13
  YS02001590           JUNCTION     0.45     1.40     9.26     0  01:41        1.40
  YS02001593           JUNCTION     0.39     1.33     9.20     0  01:36        1.28
  YS02001596           JUNCTION     0.53     1.68     9.10     0  01:36        1.65
  YS02001600           JUNCTION     0.63     1.87     9.00     0  01:36        1.87
  YS02001601           JUNCTION     0.81     2.06     8.90     0  01:35        2.06
  YS02001602           JUNCTION     0.70     1.87     8.77     0  01:36        1.87
  YS02001605           JUNCTION     0.65     1.78     8.68     0  01:41        1.78
  YS02001607           JUNCTION     0.61     1.68     8.53     0  02:35        1.68
  YS02001610           JUNCTION     0.66     1.68     8.48     0  01:39        1.68
  YS02001613           JUNCTION     0.62     1.70     8.54     0  02:35        1.70
  YS02001616           JUNCTION     0.55     1.61     8.52     0  01:45        1.61
  YS02001619           JUNCTION     0.53     1.61     8.54     0  01:41        1.61
  YS02001622           JUNCTION     0.52     1.58     8.49     0  01:46        1.58
  YS02001625           JUNCTION     0.76     1.78     8.38     0  01:40        1.78
  YS02001629           JUNCTION     0.67     1.85     8.40     0  01:41        1.85
  YS02001633           JUNCTION     0.74     2.08     8.53     0  01:48        2.08
  YS02001641           JUNCTION     0.70     1.97     8.40     0  01:49        1.96
  YS02001644           JUNCTION     0.69     1.92     8.35     0  01:43        1.92
  YS02001647           JUNCTION     0.49     1.80     8.41     0  01:47        1.78
  YS02001649           JUNCTION     0.55     2.05     8.44     0  01:47        2.05
  YS02001652           JUNCTION     0.44     2.02     8.61     0  01:49        2.02
  YS02001655           JUNCTION     0.35     1.93     8.78     0  01:49        1.93
  YS02001658           JUNCTION     0.26     1.78     8.93     0  01:49        1.78
  YS02001661           JUNCTION     0.24     1.66     9.06     0  01:49        1.66
  YS02001664           JUNCTION     0.11     1.29     9.21     0  01:49        1.25
  YS02001745           JUNCTION     0.12     1.10     8.62     0  01:49        1.08
  YS02001748           JUNCTION     0.24     1.62     8.70     0  01:44        1.62
  YS02001751           JUNCTION     0.30     1.64     8.52     0  01:49        1.64
  YS02001754           JUNCTION     0.39     1.87     8.48     0  01:49        1.87
  YS02001757           JUNCTION     0.57     2.16     8.42     0  01:49        2.16
  YS02001759           JUNCTION     0.52     2.21     8.57     0  01:49        2.21
  YS02001762           JUNCTION     0.51     2.15     8.55     0  01:49        2.15
  YS02001765           JUNCTION     0.48     2.08     8.53     0  01:49        2.08
  YS02001767           JUNCTION     0.48     2.01     8.49     0  01:49        2.01
  YS02001770           JUNCTION     0.49     1.95     8.44     0  01:45        1.95
  YS02001774           JUNCTION     0.55     2.03     8.46     0  01:41        2.00
  YS02001779           JUNCTION     0.37     1.68     8.37     0  01:41        1.68
  YS02001783           JUNCTION     0.35     1.30     7.45     0  01:48        1.26
  YS02001784           JUNCTION     0.35     1.17     7.24     0  01:48        1.15
  YS02001786           JUNCTION     0.29     0.91     6.94     0  01:48        0.89
  YS02001788           JUNCTION     0.21     0.63     6.61     0  01:48        0.63
  YS02001790           JUNCTION     0.25     0.74     6.38     0  01:48        0.72
  YS02001791           JUNCTION     0.15     0.45     5.92     0  01:48        0.44
  YS02001793           JUNCTION     0.08     0.21     5.04     0  01:48        0.21
  YS02001882           JUNCTION     0.44     1.82     8.53     0  01:49        1.82
  YS02001884           JUNCTION     0.53     1.91     8.53     0  01:49        1.91
  YS02001887           JUNCTION     0.60     1.97     8.51     0  01:49        1.97
  YS02001890           JUNCTION     0.63     1.81     8.32     0  01:40        1.81
  YS02001895           JUNCTION     0.41     1.57     8.31     0  01:40        1.57
  YS02001898           JUNCTION     0.42     1.57     8.30     0  01:41        1.57
  YS02001901           JUNCTION     0.52     1.68     8.29     0  01:49        1.68
  YS02001904           JUNCTION     0.50     1.64     8.27     0  01:40        1.63
  YS02001907           JUNCTION     0.81     1.96     8.25     0  01:40        1.96
  YS02001910           JUNCTION     0.63     2.01     8.52     0  01:49        2.00
  YS02001915           JUNCTION     0.46     2.00     8.72     0  01:47        2.00
  YS02001918           JUNCTION     0.29     1.81     8.88     0  01:41        1.75
  YS02001920           JUNCTION     0.37     2.07     9.08     0  01:41        1.85
  YS02001923           JUNCTION     0.23     2.03     9.29     0  01:41        1.67
  YS02001926           JUNCTION     0.25     1.90     9.35     0  01:41        1.57
  YS02001929           JUNCTION     0.16     1.78     9.47     0  01:41        1.43
  YS02006553           JUNCTION     0.81     2.06     8.34     0  01:41        2.06
  YS02006556           JUNCTION     0.79     2.13     8.44     0  01:41        2.13
  YS02006558           JUNCTION     0.83     2.18     8.45     0  01:49        2.18
  YS02006561           JUNCTION     0.23     0.98     7.64     0  01:48        0.94
  YS02163301           JUNCTION     0.69     1.96     8.48     0  01:49        1.96
  YS02163601           JUNCTION     0.77     2.07     8.47     0  01:48        2.06
  YS02164001           JUNCTION     0.70     1.98     8.43     0  01:48        1.96
  CC-1                 OUTFALL      0.00     0.00     0.00     0  00:00        0.00
  CC-2                 OUTFALL      0.00     0.00     0.00     0  00:00        0.00
  JK-1                 OUTFALL      0.00     0.00     0.00     0  00:00        0.00
  JK-2                 OUTFALL      0.00     0.00     0.00     0  00:00        0.00
  WSC                  OUTFALL      0.18     0.30     0.97     0  02:58        0.30
  CC-storage           STORAGE      0.84     1.70     7.20     0  02:35        1.70
  JK-storage           STORAGE      1.07     3.00     3.80     0  00:00        1.99
  
  
  *******************
  Node Inflow Summary
  *******************
  
  -------------------------------------------------------------------------------------------------
                                  Maximum  Maximum                  Lateral       Total        Flow
                                  Lateral    Total  Time of Max      Inflow      Inflow     Balance
                                   Inflow   Inflow   Occurrence      Volume      Volume       Error
  Node                 Type           LPS      LPS  days hr:min    10^6 ltr    10^6 ltr     Percent
  -------------------------------------------------------------------------------------------------
  WS02003060           JUNCTION     16.53   553.50     0  02:55       0.476        5.54       0.044
  WS02003066           JUNCTION      0.00   536.82     0  02:55           0        5.07       0.028
  WS02003067           JUNCTION      0.00   536.79     0  02:55           0        5.07       0.084
  WS02003069           JUNCTION      0.32   553.76     0  02:55     0.00922        5.55       0.075
  WS02003072           JUNCTION      0.00   553.62     0  02:56           0        5.54       0.134
  WS02003073           JUNCTION      1.82   555.35     0  02:57      0.0524        5.59       0.105
  WS02004401           JUNCTION      0.00  1697.33     0  00:00           0        5.18       0.221
  WS02004402           JUNCTION      0.00  1210.03     0  00:01           0        5.17       0.216
  WS02004403           JUNCTION      0.00   817.89     0  00:01           0        5.16       0.208
  WS02004404           JUNCTION      0.16   816.21     0  00:01     0.00467        5.15       0.175
  WS02004405           JUNCTION      0.04   787.87     0  00:01      0.0011        5.14       0.241
  WS02004406           JUNCTION      0.00   736.08     0  00:02           0        5.13       0.430
  WS02004407           JUNCTION      0.00   537.60     0  02:48           0        5.11       0.024
  WS02004409           JUNCTION      0.00   537.35     0  02:48           0        5.11       0.058
  WS02004410           JUNCTION      0.00   537.18     0  02:53           0         5.1       0.094
  WS02004411           JUNCTION      0.00   536.94     0  02:48           0         5.1       0.116
  WS02004412           JUNCTION      0.00   537.01     0  02:54           0        5.09       0.150
  WS02004413           JUNCTION      0.00   536.89     0  02:57           0        5.08       0.271
  WS02006109           JUNCTION      1.23  1308.01     0  00:00      0.0354        5.11       0.137
  WS02006110           JUNCTION      0.00   541.31     0  01:34           0        5.08      -0.706
  WS02006111           JUNCTION      0.00  1176.04     0  00:00           0        5.11      -0.753
  WS02006112           JUNCTION      0.00  2307.30     0  00:00           0        5.15       0.003
  WS02006113           JUNCTION      0.00   560.27     0  01:34           0        5.07      -0.971
  WS02006115           JUNCTION      0.00   898.70     0  00:00           0        5.12      -0.622
  WS02006116           JUNCTION      0.00  1144.85     0  00:01           0        5.16      -0.481
  WS02006228           JUNCTION      0.00   540.64     0  01:34           0        5.05       0.061
  WS02006229           JUNCTION      0.00   540.66     0  01:34           0        5.04       0.150
  WS02006230           JUNCTION     10.28   577.92     0  03:10       0.296        5.02       0.057
  WS02006231           JUNCTION      0.00   561.99     0  03:10           0        4.72      -0.010
  WS02006232           JUNCTION      0.00   557.00     0  03:10           0        4.72       0.150
  WS02006234           JUNCTION      0.00   550.34     0  03:10           0        4.71      -0.294
  WS02006235           JUNCTION      0.00   539.98     0  03:10           0        4.85       0.278
  WS02006238           JUNCTION      0.00   425.76     0  03:17           0        3.29      -0.062
  WS02006239           JUNCTION      0.00   423.84     0  03:24           0        3.19      -0.044
  WS02006240           JUNCTION      0.00   416.90     0  03:24           0        3.16      -0.031
  WS02006242           JUNCTION      0.00   416.60     0  03:16           0        3.15      -0.056
  WS02006243           JUNCTION      0.00   417.34     0  03:16           0        3.15      -0.076
  WS02006245           JUNCTION      0.00   418.91     0  03:20           0        3.16       0.293
  WS02006247           JUNCTION      0.00   420.74     0  03:20           0        3.16       0.014
  WS02006248           JUNCTION      0.00   423.98     0  03:21           0        3.16       0.042
  WS02006249           JUNCTION      0.00   793.83     0  00:00           0        3.59       0.200
  WS02006251           JUNCTION      0.08   453.22     0  00:00     0.00222        3.58      -0.281
  WS02006252           JUNCTION      0.00   400.00     0  00:00           0        3.51      -1.949
  WS02006256           JUNCTION      0.00   300.00     0  00:00           0        2.29      -3.578
  WSF200               JUNCTION      0.00   536.84     0  02:55           0        5.07       0.011
  YS02001580           JUNCTION      0.00    79.87     0  01:36           0     0.00397       0.189
  YS02001583           JUNCTION      0.00   142.60     0  01:35           0      0.0153      -4.497
  YS02001586           JUNCTION   1483.22  1483.24     0  01:52         3.2        3.21       0.037
  YS02001590           JUNCTION      0.00   318.12     0  02:28           0        1.78      -0.028
  YS02001593           JUNCTION      0.00   318.16     0  02:25           0        1.78       0.004
  YS02001596           JUNCTION      0.00   318.43     0  02:28           0        1.78      -0.013
  YS02001600           JUNCTION      0.00   318.34     0  02:28           0        1.78      -0.002
  YS02001601           JUNCTION   2445.62  2763.02     0  01:50        4.12        5.89       0.008
  YS02001602           JUNCTION      0.00   507.78     0  01:35           0        2.79       0.005
  YS02001605           JUNCTION      0.00   507.76     0  01:35           0         2.6       0.007
  YS02001607           JUNCTION      0.00   507.89     0  01:35           0         2.6       0.067
  YS02001610           JUNCTION      0.00   955.80     0  01:57           0        3.42       0.060
  YS02001613           JUNCTION      0.00   618.83     0  01:57           0         2.6       0.054
  YS02001616           JUNCTION      0.00   619.16     0  01:57           0        2.61       0.011
  YS02001619           JUNCTION   2565.48  2565.48     0  01:51           5        6.79      -0.006
  YS02001622           JUNCTION      0.00  1053.93     0  02:00           0        5.46      -0.006
  YS02001625           JUNCTION      0.00  1505.39     0  01:57           0        5.99       0.153
  YS02001629           JUNCTION      0.00  1047.95     0  01:50           0        4.44       0.006
  YS02001633           JUNCTION   1893.74  1893.74     0  01:50        3.14         6.7       0.045
  YS02001641           JUNCTION      0.00  1400.38     0  01:40           0        5.83       0.045
  YS02001644           JUNCTION   1615.80  2955.54     0  01:50         2.6        8.54       0.036
  YS02001647           JUNCTION      0.00  1804.65     0  01:40           0        6.74       0.003
  YS02001649           JUNCTION      0.00  2083.46     0  01:39           0        9.17       0.001
  YS02001652           JUNCTION      0.00  1636.67     0  01:50           0        2.54      -0.033
  YS02001655           JUNCTION      0.15  1636.85     0  01:50     0.00443        2.53      -0.111
  YS02001658           JUNCTION      0.00  1635.48     0  01:50           0        2.53      -0.029
  YS02001661           JUNCTION      0.00  1634.26     0  01:50           0        2.53       0.010
  YS02001664           JUNCTION   1632.37  1632.37     0  01:50        2.53        2.53      -0.009
  YS02001745           JUNCTION    960.35   960.35     0  01:49        1.42        1.42       0.106
  YS02001748           JUNCTION      0.04   978.64     0  01:49      0.0013        1.42      -0.147
  YS02001751           JUNCTION      0.01   977.71     0  01:49    0.000317        1.42       0.044
  YS02001754           JUNCTION      0.26   977.10     0  01:49     0.00749        1.43      -0.115
  YS02001757           JUNCTION      0.00  3693.08     0  01:47           0        14.6       0.039
  YS02001759           JUNCTION   1404.26  1571.65     0  01:49        2.07        4.13      -0.011
  YS02001762           JUNCTION      0.00   778.35     0  01:43           0        2.05      -0.004
  YS02001765           JUNCTION      0.00   778.15     0  01:44           0        2.05       0.000
  YS02001767           JUNCTION      0.54   778.50     0  01:44      0.0154        2.05      -0.001
  YS02001770           JUNCTION   1951.60  1951.60     0  01:50        3.02        3.07      -0.017
  YS02001774           JUNCTION      0.00   852.02     0  01:54           0       0.789       0.129
  YS02001779           JUNCTION      0.01   851.72     0  01:53    0.000144       0.741      -0.061
  YS02001783           JUNCTION      0.00  1189.57     0  01:49           0        5.32       0.003
  YS02001784           JUNCTION      1.06  1190.80     0  01:49      0.0305        5.36       0.009
  YS02001786           JUNCTION      0.06  1191.50     0  01:49     0.00162        5.36       0.012
  YS02001788           JUNCTION      0.07  1191.09     0  01:49     0.00204        5.36       0.005
  YS02001790           JUNCTION      0.15  1195.09     0  01:49     0.00446        5.36       0.039
  YS02001791           JUNCTION      0.00  1313.67     0  01:48           0        5.36      -0.042
  YS02001793           JUNCTION      0.00  1252.55     0  01:48           0        5.36       0.003
  YS02001882           JUNCTION      0.00    31.31     0  01:38           0      0.0134       3.754
  YS02001884           JUNCTION      0.00    67.60     0  01:38           0      0.0501       5.041
  YS02001887           JUNCTION   1487.35  1496.75     0  01:49        2.11        2.14       0.201
  YS02001890           JUNCTION      0.00  1498.66     0  01:49           0         2.1       0.239
  YS02001895           JUNCTION      0.00   518.12     0  02:01           0         1.6       0.097
  YS02001898           JUNCTION      0.00   518.00     0  01:59           0         1.6       0.000
  YS02001901           JUNCTION      0.00   518.39     0  02:01           0         1.6       0.207
  YS02001904           JUNCTION      0.00   518.15     0  02:01           0         1.6       0.169
  YS02001907           JUNCTION      0.00  3263.36     0  01:50           0        5.96       0.300
  YS02001910           JUNCTION      0.00  1993.11     0  01:53           0        4.08       0.175
  YS02001915           JUNCTION   1625.05  2475.37     0  01:50        2.65        4.24       0.033
  YS02001918           JUNCTION      0.00   852.73     0  01:51           0        1.62      -0.003
  YS02001920           JUNCTION      2.87   852.55     0  01:51      0.0827         1.6       0.059
  YS02001923           JUNCTION      0.04   849.42     0  01:51     0.00109         1.5      -0.058
  YS02001926           JUNCTION      0.05   848.85     0  01:51      0.0015        1.49       0.008
  YS02001929           JUNCTION    848.31   848.31     0  01:51        1.48        1.48      -0.059
  YS02006553           JUNCTION      0.00   787.55     0  02:16           0        2.97       0.397
  YS02006556           JUNCTION      0.00   787.68     0  02:16           0        2.98       0.262
  YS02006558           JUNCTION   1934.40  1934.40     0  01:50        2.95        5.63       0.064
  YS02006561           JUNCTION      0.00  1189.30     0  01:49           0        5.32      -0.005
  YS02163301           JUNCTION      0.00  1047.50     0  01:50           0        4.43       0.025
  YS02163601           JUNCTION      0.11  1403.38     0  01:40     0.00317        5.83       0.079
  YS02164001           JUNCTION      0.00  1402.47     0  01:40           0        5.83       0.036
  CC-1                 OUTFALL       0.00   683.00     0  00:00           0        5.99       0.000
  CC-2                 OUTFALL       0.00   683.00     0  00:00           0        5.99       0.000
  JK-1                 OUTFALL       0.00  1000.00     0  00:00           0         1.6       0.000
  JK-2                 OUTFALL       0.00  1000.00     0  00:00           0         1.6       0.000
  WSC                  OUTFALL       0.00   555.26     0  02:58           0        5.58       0.000
  CC-storage           STORAGE       0.00  3693.00     0  01:49           0        16.8      -0.197
  JK-storage           STORAGE       0.00  1248.13     0  01:48           0        5.51      -0.319
  
  
  **********************
  Node Surcharge Summary
  **********************
  
  Surcharging occurs when water rises above the top of the highest conduit.
  ---------------------------------------------------------------------
                                               Max. Height   Min. Depth
                                   Hours       Above Crown    Below Rim
  Node                 Type      Surcharged         Meters       Meters
  ---------------------------------------------------------------------
  WS02006109           JUNCTION        2.18          0.219        1.601
  WS02006110           JUNCTION        1.59          0.091        1.759
  WS02006111           JUNCTION        0.01          0.087        1.783
  WS02006112           JUNCTION        1.68          1.680        0.000
  WS02006113           JUNCTION        0.01          0.600        1.330
  WS02006115           JUNCTION        0.01          0.642        1.608
  WS02006116           JUNCTION        0.01          0.000        2.290
  WS02006228           JUNCTION        2.18          0.234        1.966
  WS02006229           JUNCTION        2.19          0.372        2.078
  WS02006230           JUNCTION        1.59          0.100        1.470
  WS02006231           JUNCTION        1.67          0.426        1.104
  WS02006232           JUNCTION        2.22          0.584        0.896
  WS02006234           JUNCTION        2.05          0.593        0.647
  WS02006235           JUNCTION        2.18          0.700        0.590
  WS02006238           JUNCTION        2.20          0.725        0.705
  WS02006239           JUNCTION        2.17          0.942        0.348
  WS02006240           JUNCTION        2.16          1.009        0.381
  WS02006242           JUNCTION        2.18          0.820        0.000
  WS02006243           JUNCTION        2.14          0.770        0.000
  WS02006245           JUNCTION        2.14          0.850        0.000
  WS02006247           JUNCTION        2.14          0.760        0.000
  WS02006248           JUNCTION        2.13          0.380        0.000
  WS02006249           JUNCTION        2.13          0.390        0.000
  WS02006251           JUNCTION        1.78          0.470        0.710
  WS02006252           JUNCTION        2.46          1.100        0.000
  WS02006256           JUNCTION        7.02          2.050        0.000
  YS02001580           JUNCTION        1.04          0.450        0.000
  YS02001583           JUNCTION        1.05          0.500        0.000
  YS02001586           JUNCTION        1.20          0.510        0.000
  YS02001590           JUNCTION        1.30          0.750        0.000
  YS02001593           JUNCTION        1.30          0.714        0.126
  YS02001596           JUNCTION        1.45          0.952        0.118
  YS02001600           JUNCTION        1.60          1.190        0.000
  YS02001601           JUNCTION        1.82          1.440        0.000
  YS02001602           JUNCTION        1.75          1.270        0.000
  YS02001605           JUNCTION        1.72          1.180        0.000
  YS02001607           JUNCTION        1.29          0.680        0.000
  YS02001610           JUNCTION        1.33          0.680        0.000
  YS02001613           JUNCTION        1.28          0.700        0.000
  YS02001616           JUNCTION        1.23          0.610        0.000
  YS02001619           JUNCTION        1.21          0.610        0.000
  YS02001622           JUNCTION        1.21          0.585        0.035
  YS02001625           JUNCTION        1.44          0.780        0.000
  YS02001629           JUNCTION        1.15          0.470        0.000
  YS02001633           JUNCTION        1.47          1.060        0.000
  YS02001641           JUNCTION        1.41          0.968        0.132
  YS02001644           JUNCTION        1.38          0.920        0.000
  YS02001647           JUNCTION        1.09          0.796        0.104
  YS02001649           JUNCTION        1.26          1.050        0.000
  YS02001652           JUNCTION        0.98          0.987        0.143
  YS02001655           JUNCTION        0.73          0.927        0.273
  YS02001658           JUNCTION        0.43          0.784        0.516
  YS02001661           JUNCTION        0.22          0.586        0.804
  YS02001664           JUNCTION        0.06          0.287        1.023
  YS02001745           JUNCTION        0.03          0.098        1.252
  YS02001748           JUNCTION        0.35          0.539        0.651
  YS02001751           JUNCTION        0.52          0.638        0.562
  YS02001754           JUNCTION        0.85          0.820        0.330
  YS02001757           JUNCTION        1.34          1.156        0.054
  YS02001759           JUNCTION        1.22          1.210        0.000
  YS02001762           JUNCTION        1.18          1.150        0.000
  YS02001765           JUNCTION        1.12          1.082        0.018
  YS02001767           JUNCTION        1.07          1.006        0.024
  YS02001770           JUNCTION        1.03          0.920        0.000
  YS02001774           JUNCTION        1.15          1.035        0.015
  YS02001779           JUNCTION        0.82          0.680        0.000
  YS02001783           JUNCTION        0.82          0.504        1.096
  YS02001784           JUNCTION        0.79          0.372        1.118
  YS02001786           JUNCTION        0.66          0.108        1.322
  YS02001882           JUNCTION        0.75          0.818        0.012
  YS02001884           JUNCTION        0.76          0.853        0.017
  YS02001887           JUNCTION        0.81          0.919        0.031
  YS02001890           JUNCTION        0.83          0.760        0.000
  YS02001895           JUNCTION        0.74          0.568        0.182
  YS02001898           JUNCTION        0.73          0.539        0.201
  YS02001901           JUNCTION        0.79          0.679        0.191
  YS02001904           JUNCTION        0.78          0.639        0.211
  YS02001907           JUNCTION        1.10          0.950        0.000
  YS02001910           JUNCTION        0.86          1.014        0.086
  YS02001915           JUNCTION        0.75          1.000        0.000
  YS02001918           JUNCTION        0.64          0.810        0.000
  YS02001920           JUNCTION        0.66          1.074        0.066
  YS02001923           JUNCTION        0.30          0.815        0.005
  YS02001926           JUNCTION        0.32          0.900        0.000
  YS02001929           JUNCTION        0.20          0.780        0.000
  YS02006553           JUNCTION        1.13          1.057        0.133
  YS02006556           JUNCTION        0.98          1.087        0.263
  YS02006558           JUNCTION        0.97          1.082        0.318
  YS02006561           JUNCTION        0.60          0.178        0.972
  YS02163301           JUNCTION        1.45          0.962        0.068
  YS02163601           JUNCTION        1.50          1.071        0.009
  YS02164001           JUNCTION        1.42          0.976        0.124
  
  
  *********************
  Node Flooding Summary
  *********************
  
  Flooding refers to all water that overflows a node, whether it ponds or not.
  --------------------------------------------------------------------------
                                                             Total   Maximum
                                 Maximum   Time of Max       Flood    Ponded
                        Hours       Rate    Occurrence      Volume     Depth
  Node                 Flooded       LPS   days hr:min    10^6 ltr    Meters
  --------------------------------------------------------------------------
  WS02006112              0.01   1547.89      0  00:00       0.047     0.000
  WS02006242              0.01     11.91      0  01:33       0.000     0.000
  WS02006243              0.01     76.17      0  01:33       0.000     0.000
  WS02006245              0.01      4.68      0  03:24       0.000     0.000
  WS02006247              0.01     33.68      0  01:33       0.000     0.000
  WS02006248              0.03     21.39      0  01:33       0.001     0.000
  WS02006249              1.70    127.74      0  01:33       0.417     0.000
  WS02006252              0.01    282.92      0  01:33       0.002     0.000
  WS02006256              2.11    299.18      0  03:21       0.796     0.000
  YS02001580              0.01      5.84      0  01:36       0.000     0.000
  YS02001583              0.01     74.71      0  01:36       0.000     0.000
  YS02001586              0.86   1165.69      0  01:52       1.425     0.000
  YS02001590              0.01      0.08      0  01:41       0.000     0.000
  YS02001600              0.01      1.50      0  01:36       0.000     0.000
  YS02001601              1.10   2365.06      0  01:50       3.102     0.000
  YS02001602              0.95     61.99      0  02:27       0.193     0.000
  YS02001605              0.01      0.52      0  02:35       0.000     0.000
  YS02001607              0.01      0.83      0  02:35       0.000     0.000
  YS02001610              0.83    954.98      0  01:57       1.634     0.000
  YS02001613              0.01      0.82      0  02:35       0.000     0.000
  YS02001616              0.08      1.56      0  01:48       0.000     0.000
  YS02001619              0.26    897.93      0  01:51       0.497     0.000
  YS02001625              0.80   1505.20      0  02:00       2.415     0.000
  YS02001629              0.32    614.48      0  01:50       0.353     0.000
  YS02001633              0.01      2.83      0  01:49       0.000     0.000
  YS02001644              0.39   2955.00      0  01:50       1.888     0.000
  YS02001649              0.01     20.91      0  01:47       0.000     0.000
  YS02001759              0.01      0.41      0  01:49       0.000     0.000
  YS02001762              0.01      1.48      0  01:49       0.000     0.000
  YS02001770              0.17    965.79      0  01:50       0.267     0.000
  YS02001779              0.35    851.44      0  01:54       0.718     0.000
  YS02001890              0.36    982.33      0  01:49       0.499     0.000
  YS02001907              0.57   3262.80      0  01:50       3.251     0.000
  YS02001915              0.14    482.83      0  01:50       0.122     0.000
  YS02001918              0.01     72.93      0  01:41       0.000     0.000
  YS02001926              0.01     22.96      0  01:41       0.000     0.000
  YS02001929              0.01    265.99      0  01:41       0.001     0.000
  
  
  **********************
  Storage Volume Summary
  **********************
  
  --------------------------------------------------------------------------------------------------
                         Average     Avg  Evap Exfil       Maximum     Max    Time of Max    Maximum
                          Volume    Pcnt  Pcnt  Pcnt        Volume    Pcnt     Occurrence    Outflow
  Storage Unit           1000 m3    Full  Loss  Loss       1000 m3    Full    days hr:min        LPS
  --------------------------------------------------------------------------------------------------
  CC-storage               2.330      36     0     0         4.730      74       0  02:35    1794.81
  JK-storage               0.054      18     0     0         0.151      52       0  00:00    2300.00
  
  
  ***********************
  Outfall Loading Summary
  ***********************
  
  -----------------------------------------------------------
                         Flow       Avg       Max       Total
                         Freq      Flow      Flow      Volume
  Outfall Node           Pcnt       LPS       LPS    10^6 ltr
  -----------------------------------------------------------
  CC-1                  47.74    683.00    683.00       5.989
  CC-2                  47.74    683.00    683.00       5.989
  JK-1                   9.55   1000.00   1000.00       1.604
  JK-2                   9.55   1000.00   1000.00       1.604
  WSC                   99.99    268.55    555.26       5.582
  -----------------------------------------------------------
  System                42.91   3634.55    555.26      20.768
  
  
  ********************
  Link Flow Summary
  ********************
  
  -----------------------------------------------------------------------------
                                 Maximum  Time of Max   Maximum    Max/    Max/
                                  |Flow|   Occurrence   |Veloc|    Full    Full
  Link                 Type          LPS  days hr:min     m/sec    Flow   Depth
  -----------------------------------------------------------------------------
  1                    CONDUIT    555.26     0  02:58      2.83    0.19    0.30
  WS02003060WS02003069 CONDUIT    553.44     0  02:55      1.64    0.22    0.34
  WS02003066WSF200     CONDUIT    536.84     0  02:55      2.85    0.09    0.22
  WS02003067WS02003066 CONDUIT    536.82     0  02:55      1.21    0.17    0.42
  WS02003069WS02003072 CONDUIT    553.62     0  02:56      1.37    0.27    0.39
  WS02003072WS02003073 CONDUIT    553.53     0  02:57      1.44    1.20    0.37
  WS02004401WS02004402 CONDUIT   1210.03     0  00:01      2.53    1.45    0.86
  WS02004402WS02004403 CONDUIT    817.89     0  00:01      2.15    1.18    0.88
  WS02004403WS02004404 CONDUIT    816.05     0  00:01      1.91    0.59    0.93
  WS02004404WS02004405 CONDUIT    787.83     0  00:01      2.33    7.72    0.96
  WS02004405WS02004406 CONDUIT    736.08     0  00:02      2.18    1.45    0.96
  WS02004406WS02004407 CONDUIT    537.60     0  02:48      1.04    0.24    0.63
  WS02004407WS02004409 CONDUIT    537.35     0  02:48      1.96    0.19    0.48
  WS02004409WS02004410 CONDUIT    537.18     0  02:53      1.33    0.69    0.67
  WS02004410WS02004411 CONDUIT    536.94     0  02:48      1.23    0.73    0.69
  WS02004411WS02004412 CONDUIT    537.01     0  02:54      1.16    0.76    0.69
  WS02004412WS02004413 CONDUIT    536.89     0  02:57      1.15    0.36    0.78
  WS02004413WS02003067 CONDUIT    536.79     0  02:55      1.11    0.23    0.59
  WS02006109WS02006110 CONDUIT   1306.78     0  00:00      3.14    2.51    1.00
  WS02006110WS02006113 CONDUIT    560.27     0  01:34      1.34    0.51    1.00
  WS02006111WS02006112 CONDUIT   2307.30     0  00:00      9.18    1.10    0.91
  WS02006112WS02006115 CONDUIT    898.70     0  00:00      1.15    0.53    1.00
  WS02006113WS02006111 CONDUIT   1176.04     0  00:00      2.47    1.41    1.00
  WS02006115WS02006116 CONDUIT   1144.85     0  00:01      1.76    1.47    1.00
  WS02006116WS02004401 CONDUIT   1697.33     0  00:00      3.01    2.34    0.84
  WS02006228WS02006109 CONDUIT    540.24     0  01:34      1.40    2.36    1.00
  WS02006229WS02006228 CONDUIT    540.64     0  01:34      1.25    1.79    1.00
  WS02006230WS02006229 CONDUIT    540.66     0  01:34      1.40   12.03    1.00
  WS02006231WS02006230 CONDUIT    567.64     0  03:10      1.49    8.61    1.00
  WS02006232WS02006231 CONDUIT    561.99     0  03:10      1.46    1.18    1.00
  WS02006234WS02006232 CONDUIT    557.00     0  03:10      1.45    1.13    1.00
  WS02006235WS02006234 CONDUIT    550.34     0  03:10      1.43    5.81    1.00
  WS02006238WS02006235 CONDUIT    439.63     0  03:16      1.48    0.98    1.00
  WS02006239WS02006238 CONDUIT    425.76     0  03:17      1.11    1.36    1.00
  WS02006240WS02006239 CONDUIT    423.84     0  03:24      1.27    1.33    1.00
  WS02006242WS02006240 CONDUIT    416.90     0  03:24      1.14    1.66    1.00
  WS02006243WS02006242 CONDUIT    416.60     0  03:16      1.40    0.89    1.00
  WS02006245WS02006243 CONDUIT    417.34     0  03:16      1.46    1.23    1.00
  WS02006247WS02006245 CONDUIT    418.91     0  03:20      1.46    3.32    1.00
  WS02006248WS02006247 CONDUIT    420.74     0  03:20      1.50    0.92    1.00
  WS02006249WS02006248 CONDUIT    423.98     0  03:21      1.44    2.32    1.00
  WS02006251WS02006249 CONDUIT    793.83     0  00:00      2.76    2.29    1.00
  WS02006252WS02006251 CONDUIT    453.14     0  00:00     27.12    1.66    1.00
  WS02006256WS02006235 CONDUIT    288.76     0  00:01      4.23    3.06    1.00
  WSF200WS02003060     CONDUIT    536.97     0  02:55      2.06    0.12    0.28
  YS02001580YS02001583 CONDUIT     79.87     0  01:36      0.58    0.31    1.00
  YS02001583YS02001586 CONDUIT    142.60     0  01:35      0.59    0.22    1.00
  YS02001586YS02001590 CONDUIT    318.12     0  02:28      1.26    0.56    1.00
  YS02001590YS02001593 CONDUIT    318.16     0  02:25      1.13    2.00    1.00
  YS02001593YS02001596 CONDUIT    318.43     0  02:28      1.72    0.50    1.00
  YS02001596YS02001600 CONDUIT    318.34     0  02:28      1.26    0.62    1.00
  YS02001600YS02001601 CONDUIT    318.16     0  02:28      1.13    0.55    1.00
  YS02001601YS02001602 CONDUIT    507.78     0  01:35      1.80    1.83    1.00
  YS02001602YS02001605 CONDUIT    507.76     0  01:35      1.80   10.75    1.00
  YS02001605YS02001607 CONDUIT    507.89     0  01:35      1.80    2.79    1.00
  YS02001607YS02001610 CONDUIT    507.63     0  01:35      0.65    0.48    1.00
  YS02001610YS02001613 CONDUIT    619.11     0  01:57      0.79    0.71    1.00
  YS02001613YS02001616 CONDUIT    618.83     0  01:57      0.79    0.53    1.00
  YS02001616YS02001619 CONDUIT    619.16     0  01:57      0.79    1.07    1.00
  YS02001619YS02001622 CONDUIT   1053.93     0  02:00      1.34    1.55    1.00
  YS02001622YS02001625 CONDUIT   1053.69     0  01:57      1.34    0.56    1.00
  YS02001625YS02001629 CONDUIT    937.74     0  01:39      1.19    0.45    1.00
  YS02001629YS02163301 CONDUIT   1047.95     0  01:50      1.33    1.29    1.00
  YS02001633YS02163601 CONDUIT   1403.27     0  01:40      1.79    1.47    1.00
  YS02001641YS02001644 CONDUIT   1400.58     0  01:39      1.78    4.53    1.00
  YS02001644YS02001647 CONDUIT   1804.65     0  01:40      2.31    1.06    1.00
  YS02001647YS02001649 CONDUIT   1825.01     0  01:40      2.38    0.96    1.00
  YS02001649YS02001757 CONDUIT   2074.48     0  01:40      2.64    1.26    1.00
  YS02001652YS02001649 CONDUIT   1636.99     0  01:50      2.08    0.81    1.00
  YS02001655YS02001652 CONDUIT   1636.67     0  01:50      2.08    0.79    1.00
  YS02001658YS02001655 CONDUIT   1636.69     0  01:50      2.08    0.69    1.00
  YS02001661YS02001658 CONDUIT   1635.48     0  01:50      2.33    0.64    1.00
  YS02001664YS02001661 CONDUIT   1634.26     0  01:50      2.34    0.51    1.00
  YS02001745YS02001748 CONDUIT    978.60     0  01:49      2.15    0.38    1.00
  YS02001748YS02001751 CONDUIT    977.70     0  01:49      1.66    0.49    1.00
  YS02001751YS02001754 CONDUIT    976.84     0  01:49      1.41    0.47    1.00
  YS02001754YS02001757 CONDUIT    976.51     0  01:49      1.24    0.39    1.00
  YS02001757CaochengTiaoxuchi CONDUIT   3693.00     0  01:49      5.00    1.60    1.00
  YS02001759YS02001757 CONDUIT   1573.16     0  01:49      2.00    1.12    1.00
  YS02001762YS02001759 CONDUIT    778.05     0  01:43      0.99    0.90    1.00
  YS02001765YS02001762 CONDUIT    778.35     0  01:43      0.99    0.73    1.00
  YS02001767YS02001765 CONDUIT    778.15     0  01:44      0.99    0.98    1.00
  YS02001770YS02001767 CONDUIT    777.96     0  01:44      0.99    3.08    1.00
  YS02001774YS02001770 CONDUIT    852.02     0  01:54      1.08    0.54    1.00
  YS02001779YS02001774 CONDUIT    851.72     0  01:53      1.08    0.43    1.00
  YS02001783YS02001784 CONDUIT   1189.74     0  01:49      2.37    1.64    1.00
  YS02001784YS02001785 CONDUIT   1191.44     0  01:49      2.37    2.77    1.00
  YS02001786YS02001788 CONDUIT   1191.02     0  01:49      2.52    2.29    0.89
  YS02001788YS02001790 CONDUIT   1194.93     0  01:49      2.75    0.88    0.85
  YS02001790YS02001791 CONDUIT   1313.67     0  01:48      3.44    1.43    0.71
  YS02001791YS02001793 CONDUIT   1252.55     0  01:48      6.79    0.54    0.41
  YS02001793JiankangQianchi CONDUIT   1248.13     0  01:48      2.50    0.10    0.61
  YS02001882YS02001884 CONDUIT     31.31     0  01:38      0.20    0.04    1.00
  YS02001884YS02001887 CONDUIT     67.60     0  01:38      0.15    0.09    1.00
  YS02001887YS02001890 CONDUIT   1498.66     0  01:49      1.91    2.56    1.00
  YS02001890YS02001895 CONDUIT    518.12     0  02:01      0.66    0.24    1.00
  YS02001895YS02001898 CONDUIT    518.00     0  01:59      0.66    0.90    1.00
  YS02001898YS02001901 CONDUIT    518.39     0  02:01      0.66    0.33    1.00
  YS02001901YS02001904 CONDUIT    518.15     0  02:01      0.66    0.80    1.00
  YS02001904YS02001907 CONDUIT    518.43     0  01:50      0.66    0.18    1.00
  YS02001907YS02006553 CONDUIT    787.55     0  02:16      0.88    0.93    1.00
  YS02001910YS02001907 CONDUIT   1993.01     0  01:53      2.54    1.12    1.00
  YS02001915YS02001910 CONDUIT   1993.11     0  01:53      2.54    0.99    1.00
  YS02001918YS02001915 CONDUIT    853.11     0  01:51      1.09    0.47    1.00
  YS02001920YS02001918 CONDUIT    852.73     0  01:51      1.09    0.82    1.00
  YS02001923YS02001920 CONDUIT    849.68     0  01:51      1.08    0.38    1.00
  YS02001926YS02001923 CONDUIT    849.39     0  01:51      1.08    1.21    1.00
  YS02001929YS02001926 CONDUIT    848.80     0  01:51      1.12    0.40    1.00
  YS02006553YS02006556 CONDUIT    787.68     0  02:16      1.00    0.67    1.00
  YS02006556YS02006558 CONDUIT    788.76     0  02:18      1.00    0.62    1.00
  YS02006558YS02006561 CONDUIT   1189.30     0  01:49      4.21    2.63    1.00
  YS02006561YS02001783 CONDUIT   1189.57     0  01:49      2.37    0.62    1.00
  YS02163301YS02001633 CONDUIT   1047.50     0  01:50      1.33    0.98    1.00
  YS02163601YS02164001 CONDUIT   1402.47     0  01:40      1.79    1.24    1.00
  YS02164001YS02001641 CONDUIT   1400.38     0  01:40      1.78    1.91    1.00
  CC-R1                PUMP       683.00     0  00:00              1.00
  CC-R2                PUMP       683.00     0  00:00              1.00
  CC-S1                PUMP       200.00     0  00:00              1.00
  CC-S2                PUMP       200.00     0  00:00              1.00
  JK-R1                PUMP      1000.00     0  00:00              1.00
  JK-R2                PUMP      1000.00     0  00:00              1.00
  JK-S                 PUMP       300.00     0  00:00              1.00
  
  
  ***************************
  Flow Classification Summary
  ***************************
  
  -------------------------------------------------------------------------------------
                      Adjusted    ---------- Fraction of Time in Flow Class ---------- 
                       /Actual         Up    Down  Sub   Sup   Up    Down  Norm  Inlet 
  Conduit               Length    Dry  Dry   Dry   Crit  Crit  Crit  Crit  Ltd   Ctrl  
  -------------------------------------------------------------------------------------
  1                       1.00   0.00  0.00  0.00  0.00  1.00  0.00  0.00  0.47  0.00
  WS02003060WS02003069    1.00   0.00  0.00  0.00  0.97  0.03  0.00  0.00  0.69  0.00
  WS02003066WSF200        1.00   0.04  0.00  0.00  0.00  0.96  0.00  0.00  0.76  0.00
  WS02003067WS02003066    1.00   0.02  0.02  0.00  0.96  0.00  0.00  0.00  0.00  0.00
  WS02003069WS02003072    1.00   0.00  0.00  0.00  0.99  0.01  0.00  0.00  0.70  0.00
  WS02003072WS02003073    1.00   0.00  0.00  0.00  0.00  0.00  0.00  1.00  0.00  0.00
  WS02004401WS02004402    1.00   0.00  0.00  0.00  1.00  0.00  0.00  0.00  0.00  0.00
  WS02004402WS02004403    1.00   0.00  0.00  0.00  1.00  0.00  0.00  0.00  0.00  0.00
  WS02004403WS02004404    1.00   0.00  0.00  0.00  1.00  0.00  0.00  0.00  0.00  0.00
  WS02004404WS02004405    1.00   0.00  0.00  0.00  1.00  0.00  0.00  0.00  0.00  0.00
  WS02004405WS02004406    1.00   0.00  0.00  0.00  1.00  0.00  0.00  0.00  0.00  0.00
  WS02004406WS02004407    1.00   0.00  0.00  0.00  1.00  0.00  0.00  0.00  0.00  0.00
  WS02004407WS02004409    1.00   0.00  0.00  0.00  0.97  0.02  0.00  0.00  0.99  0.00
  WS02004409WS02004410    1.00   0.00  0.00  0.00  0.99  0.00  0.00  0.00  0.00  0.00
  WS02004410WS02004411    1.00   0.00  0.00  0.00  0.99  0.00  0.00  0.00  0.00  0.00
  WS02004411WS02004412    1.00   0.01  0.00  0.00  0.99  0.00  0.00  0.00  0.00  0.00
  WS02004412WS02004413    1.00   0.01  0.00  0.00  0.99  0.00  0.00  0.00  0.00  0.00
  WS02004413WS02003067    1.00   0.01  0.01  0.00  0.00  0.00  0.98  0.00  0.00  0.00
  WS02006109WS02006110    1.00   0.00  0.00  0.00  1.00  0.00  0.00  0.00  0.00  0.00
  WS02006110WS02006113    1.00   0.00  0.00  0.00  1.00  0.00  0.00  0.00  0.00  0.00
  WS02006111WS02006112    1.00   0.00  0.00  0.00  1.00  0.00  0.00  0.00  1.00  0.00
  WS02006112WS02006115    1.00   0.00  0.00  0.00  1.00  0.00  0.00  0.00  0.00  0.00
  WS02006113WS02006111    1.00   0.00  0.00  0.00  0.01  0.99  0.00  0.00  0.11  0.00
  WS02006115WS02006116    1.00   0.00  0.00  0.00  1.00  0.00  0.00  0.00  0.00  0.00
  WS02006116WS02004401    1.00   0.00  0.00  0.00  1.00  0.00  0.00  0.00  0.00  0.00
  WS02006228WS02006109    1.00   0.00  0.00  0.00  1.00  0.00  0.00  0.00  0.00  0.00
  WS02006229WS02006228    1.00   0.00  0.00  0.00  1.00  0.00  0.00  0.00  0.00  0.00
  WS02006230WS02006229    1.00   0.00  0.00  0.00  1.00  0.00  0.00  0.00  0.03  0.00
  WS02006231WS02006230    1.00   0.00  0.00  0.00  0.47  0.00  0.53  0.00  0.00  0.00
  WS02006232WS02006231    1.00   0.00  0.00  0.00  0.99  0.00  0.01  0.00  0.00  0.00
  WS02006234WS02006232    1.00   0.00  0.00  0.00  1.00  0.00  0.00  0.00  0.02  0.00
  WS02006235WS02006234    1.00   0.00  0.00  0.00  0.95  0.00  0.05  0.00  0.00  0.00
  WS02006238WS02006235    1.00   0.00  0.00  0.00  1.00  0.00  0.00  0.00  0.00  0.00
  WS02006239WS02006238    1.00   0.00  0.00  0.00  1.00  0.00  0.00  0.00  0.09  0.00
  WS02006240WS02006239    1.00   0.00  0.00  0.00  0.90  0.00  0.00  0.10  0.16  0.00
  WS02006242WS02006240    1.00   0.00  0.00  0.00  0.98  0.00  0.01  0.00  0.00  0.00
  WS02006243WS02006242    1.00   0.00  0.00  0.00  0.99  0.00  0.00  0.01  0.62  0.00
  WS02006245WS02006243    1.00   0.00  0.00  0.00  0.90  0.00  0.00  0.10  0.00  0.00
  WS02006247WS02006245    1.00   0.00  0.00  0.00  0.97  0.00  0.00  0.03  0.00  0.00
  WS02006248WS02006247    1.00   0.00  0.00  0.00  0.99  0.00  0.00  0.01  0.55  0.00
  WS02006249WS02006248    1.00   0.00  0.00  0.00  0.59  0.00  0.41  0.00  0.00  0.00
  WS02006251WS02006249    1.00   0.00  0.00  0.00  0.99  0.01  0.00  0.00  0.62  0.00
  WS02006252WS02006251    1.00   0.03  0.30  0.00  0.37  0.00  0.29  0.00  0.00  0.00
  WS02006256WS02006235    1.00   0.00  0.00  0.00  0.97  0.03  0.00  0.00  0.01  0.00
  WSF200WS02003060        1.00   0.00  0.04  0.00  0.32  0.64  0.00  0.00  0.66  0.00
  YS02001580YS02001583    1.00   0.19  0.40  0.00  0.40  0.00  0.00  0.00  0.64  0.00
  YS02001583YS02001586    1.00   0.32  0.20  0.00  0.48  0.00  0.00  0.00  0.64  0.00
  YS02001586YS02001590    1.00   0.11  0.00  0.00  0.61  0.02  0.00  0.25  0.30  0.00
  YS02001590YS02001593    1.00   0.11  0.00  0.00  0.32  0.00  0.57  0.00  0.00  0.00
  YS02001593YS02001596    1.00   0.12  0.00  0.00  0.35  0.01  0.00  0.52  0.02  0.00
  YS02001596YS02001600    1.00   0.12  0.00  0.00  0.41  0.01  0.00  0.47  0.03  0.00
  YS02001600YS02001601    1.00   0.11  0.00  0.00  0.88  0.00  0.00  0.00  0.58  0.00
  YS02001601YS02001602    1.00   0.11  0.00  0.00  0.88  0.00  0.00  0.00  0.00  0.00
  YS02001602YS02001605    1.00   0.12  0.00  0.00  0.88  0.00  0.00  0.00  0.00  0.00
  YS02001605YS02001607    1.00   0.12  0.00  0.00  0.88  0.00  0.00  0.00  0.00  0.00
  YS02001607YS02001610    1.00   0.12  0.00  0.00  0.88  0.00  0.00  0.00  0.01  0.00
  YS02001610YS02001613    1.00   0.11  0.00  0.00  0.89  0.00  0.00  0.00  0.00  0.00
  YS02001613YS02001616    1.00   0.11  0.00  0.00  0.89  0.00  0.00  0.00  0.00  0.00
  YS02001616YS02001619    1.00   0.11  0.00  0.00  0.89  0.00  0.00  0.00  0.00  0.00
  YS02001619YS02001622    1.00   0.11  0.00  0.00  0.89  0.00  0.00  0.00  0.33  0.00
  YS02001622YS02001625    1.00   0.11  0.00  0.00  0.89  0.00  0.00  0.00  0.02  0.00
  YS02001625YS02001629    1.00   0.11  0.02  0.00  0.38  0.00  0.49  0.00  0.00  0.00
  YS02001629YS02163301    1.00   0.12  0.00  0.00  0.88  0.00  0.00  0.00  0.00  0.00
  YS02001633YS02163601    1.00   0.00  0.01  0.00  0.99  0.00  0.00  0.00  0.14  0.00
  YS02001641YS02001644    1.00   0.00  0.01  0.00  0.99  0.00  0.00  0.00  0.00  0.00
  YS02001644YS02001647    1.00   0.00  0.13  0.00  0.87  0.00  0.00  0.00  0.00  0.00
  YS02001647YS02001649    1.00   0.00  0.13  0.00  0.66  0.22  0.00  0.00  0.57  0.00
  YS02001649YS02001757    1.00   0.00  0.00  0.00  0.75  0.25  0.00  0.00  0.47  0.00
  YS02001652YS02001649    1.00   0.00  0.00  0.00  0.99  0.01  0.00  0.00  0.71  0.00
  YS02001655YS02001652    1.00   0.00  0.00  0.00  0.40  0.01  0.00  0.59  0.04  0.00
  YS02001658YS02001655    1.00   0.00  0.12  0.00  0.70  0.18  0.00  0.00  0.63  0.00
  YS02001661YS02001658    1.00   0.12  0.00  0.00  0.54  0.34  0.00  0.00  0.67  0.00
  YS02001664YS02001661    1.00   0.11  0.00  0.00  0.69  0.20  0.00  0.00  0.83  0.00
  YS02001745YS02001748    1.00   0.00  0.00  0.00  0.27  0.02  0.00  0.71  0.06  0.00
  YS02001748YS02001751    1.00   0.00  0.00  0.00  0.86  0.14  0.00  0.00  0.74  0.00
  YS02001751YS02001754    1.00   0.00  0.00  0.00  0.36  0.01  0.00  0.62  0.03  0.00
  YS02001754YS02001757    1.00   0.00  0.00  0.00  1.00  0.00  0.00  0.00  0.77  0.00
  YS02001757CaochengTiaoxuchi    1.00   0.00  0.00  0.00  0.89  0.11  0.00  0.00  0.75  0.00
  YS02001759YS02001757    1.00   0.00  0.00  0.00  0.99  0.01  0.00  0.00  0.62  0.00
  YS02001762YS02001759    1.00   0.00  0.00  0.00  1.00  0.00  0.00  0.00  0.03  0.00
  YS02001765YS02001762    1.00   0.00  0.00  0.00  1.00  0.00  0.00  0.00  0.70  0.00
  YS02001767YS02001765    1.00   0.00  0.00  0.00  1.00  0.00  0.00  0.00  0.00  0.00
  YS02001770YS02001767    1.00   0.00  0.00  0.00  1.00  0.00  0.00  0.00  0.00  0.00
  YS02001774YS02001770    1.00   0.00  0.11  0.00  0.73  0.00  0.15  0.00  0.01  0.00
  YS02001779YS02001774    1.00   0.00  0.00  0.00  1.00  0.00  0.00  0.00  0.73  0.00
  YS02001783YS02001784    1.00   0.00  0.13  0.00  0.87  0.00  0.00  0.00  0.56  0.00
  YS02001784YS02001785    1.00   0.00  0.00  0.00  1.00  0.00  0.00  0.00  0.14  0.00
  YS02001786YS02001788    1.00   0.00  0.00  0.00  0.70  0.30  0.00  0.00  0.00  0.00
  YS02001788YS02001790    1.00   0.00  0.00  0.00  0.20  0.80  0.00  0.00  0.77  0.00
  YS02001790YS02001791    1.00   0.00  0.00  0.00  0.02  0.98  0.00  0.00  0.15  0.00
  YS02001791YS02001793    1.00   0.00  0.00  0.00  0.00  1.00  0.00  0.00  0.01  0.00
  YS02001793JiankangQianchi    1.00   0.00  0.00  0.00  0.87  0.12  0.00  0.00  1.00  0.00
  YS02001882YS02001884    1.00   0.12  0.00  0.00  0.88  0.00  0.00  0.00  0.00  0.00
  YS02001884YS02001887    1.00   0.07  0.04  0.00  0.89  0.00  0.00  0.00  0.00  0.00
  YS02001887YS02001890    1.00   0.00  0.00  0.00  0.96  0.00  0.04  0.00  0.00  0.00
  YS02001890YS02001895    1.00   0.00  0.12  0.00  0.88  0.00  0.00  0.00  0.00  0.00
  YS02001895YS02001898    1.00   0.12  0.00  0.00  0.87  0.00  0.01  0.00  0.00  0.00
  YS02001898YS02001901    1.00   0.13  0.00  0.00  0.87  0.00  0.00  0.00  0.00  0.00
  YS02001901YS02001904    1.00   0.13  0.00  0.00  0.87  0.00  0.00  0.00  0.00  0.00
  YS02001904YS02001907    1.00   0.00  0.12  0.00  0.87  0.00  0.00  0.00  0.00  0.00
  YS02001907YS02006553    1.00   0.00  0.03  0.00  0.97  0.00  0.00  0.00  0.00  0.00
  YS02001910YS02001907    1.00   0.00  0.00  0.00  0.96  0.00  0.00  0.04  0.11  0.00
  YS02001915YS02001910    1.00   0.00  0.00  0.00  0.97  0.03  0.00  0.00  0.12  0.00
  YS02001918YS02001915    1.00   0.00  0.00  0.00  0.97  0.03  0.00  0.00  0.70  0.00
  YS02001920YS02001918    1.00   0.00  0.00  0.00  1.00  0.00  0.00  0.00  0.01  0.00
  YS02001923YS02001920    1.00   0.00  0.00  0.00  1.00  0.00  0.00  0.00  0.88  0.00
  YS02001926YS02001923    1.00   0.00  0.08  0.00  0.16  0.00  0.76  0.00  0.00  0.00
  YS02001929YS02001926    1.00   0.00  0.11  0.00  0.89  0.00  0.00  0.00  0.79  0.00
  YS02006553YS02006556    1.00   0.01  0.00  0.00  0.99  0.00  0.00  0.00  0.03  0.00
  YS02006556YS02006558    1.00   0.00  0.00  0.00  1.00  0.00  0.00  0.00  0.00  0.00
  YS02006558YS02006561    1.00   0.13  0.00  0.00  0.15  0.72  0.00  0.00  0.14  0.00
  YS02006561YS02001783    1.00   0.13  0.00  0.00  0.22  0.65  0.00  0.00  0.65  0.00
  YS02163301YS02001633    1.00   0.00  0.12  0.00  0.88  0.00  0.00  0.00  0.00  0.00
  YS02163601YS02164001    1.00   0.00  0.09  0.00  0.91  0.00  0.00  0.00  0.00  0.00
  YS02164001YS02001641    1.00   0.01  0.08  0.00  0.91  0.00  0.00  0.00  0.05  0.00
  
  
  *************************
  Conduit Surcharge Summary
  *************************
  
  ----------------------------------------------------------------------------
                                                           Hours        Hours 
                         --------- Hours Full --------   Above Full   Capacity
  Conduit                Both Ends  Upstream  Dnstream   Normal Flow   Limited
  ----------------------------------------------------------------------------
  WS02003072WS02003073        0.01      0.01      0.01      1.90         0.01
  WS02004401WS02004402        0.01      0.01      0.01      0.01         0.01
  WS02004402WS02004403        0.01      0.01      0.01      0.01         0.01
  WS02004404WS02004405        0.01      0.01      0.01      2.90         0.01
  WS02004405WS02004406        0.01      0.01      0.01      1.60         0.01
  WS02006109WS02006110        1.58      1.59      2.21      1.60         0.01
  WS02006110WS02006113        0.01      0.01      2.21      0.01         0.01
  WS02006111WS02006112        0.01      0.01      2.28      0.01         0.01
  WS02006112WS02006115        0.01      0.01      1.67      0.01         0.01
  WS02006113WS02006111        0.01      0.01      0.01      0.01         0.01
  WS02006115WS02006116        0.01      0.01      0.01      0.01         0.01
  WS02006116WS02004401        0.01      0.01      0.01      0.01         0.01
  WS02006228WS02006109        2.18      2.21      2.18      2.47         2.18
  WS02006229WS02006228        2.18      2.19      2.18      2.35         2.17
  WS02006230WS02006229        2.25      2.31      2.25      3.38         2.25
  WS02006231WS02006230        1.59      1.59      1.72      2.86         0.01
  WS02006232WS02006231        1.67      1.67      2.22      1.71         0.01
  WS02006234WS02006232        2.15      2.15      2.22      1.66         1.73
  WS02006235WS02006234        2.03      2.03      2.18      2.71         0.04
  WS02006238WS02006235        2.19      2.19      2.22      0.01         0.01
  WS02006239WS02006238        2.19      2.19      2.20      2.24         1.82
  WS02006240WS02006239        2.16      2.17      2.17      2.23         1.69
  WS02006242WS02006240        2.16      2.16      2.22      2.27         0.01
  WS02006243WS02006242        2.15      2.15      2.18      0.01         0.06
  WS02006245WS02006243        2.14      2.14      2.14      0.64         0.75
  WS02006247WS02006245        2.14      2.14      2.14      2.47         2.12
  WS02006248WS02006247        2.14      2.14      2.14      0.01         0.09
  WS02006249WS02006248        2.13      2.13      2.13      2.41         0.01
  WS02006251WS02006249        2.13      2.14      2.13      2.27         2.01
  WS02006252WS02006251        2.43      2.43      2.44      2.47         0.01
  WS02006256WS02006235        2.60      2.76      6.54      2.18         0.09
  YS02001580YS02001583        1.04      1.04      1.10      0.01         0.01
  YS02001583YS02001586        1.05      1.05      1.20      0.01         0.01
  YS02001586YS02001590        1.21      1.21      1.30      0.01         0.01
  YS02001590YS02001593        1.30      1.30      1.33      1.38         0.01
  YS02001593YS02001596        1.32      1.32      1.45      0.01         0.01
  YS02001596YS02001600        1.52      1.52      1.60      0.01         0.01
  YS02001600YS02001601        1.64      1.64      1.82      0.01         0.01
  YS02001601YS02001602        1.75      1.75      1.85      1.61         0.01
  YS02001602YS02001605        1.72      1.72      1.75      2.42         0.01
  YS02001605YS02001607        1.69      1.72      1.69      1.79         1.69
  YS02001607YS02001610        1.29      1.29      1.33      0.01         0.01
  YS02001610YS02001613        1.28      1.28      1.33      0.01         0.01
  YS02001613YS02001616        1.22      1.22      1.28      0.01         0.01
  YS02001616YS02001619        1.21      1.21      1.22      0.24         0.20
  YS02001619YS02001622        1.21      1.21      1.21      1.28         1.16
  YS02001622YS02001625        1.21      1.21      1.44      0.01         0.01
  YS02001625YS02001629        1.15      1.15      1.44      0.01         0.01
  YS02001629YS02163301        1.44      1.44      1.45      0.20         0.21
  YS02001633YS02163601        1.47      1.47      1.50      0.51         0.47
  YS02001641YS02001644        1.38      1.41      1.38      1.86         1.37
  YS02001644YS02001647        1.09      1.09      1.38      0.05         0.01
  YS02001647YS02001649        1.09      1.09      1.26      0.01         0.01
  YS02001649YS02001757        1.25      1.26      1.34      0.14         0.09
  YS02001652YS02001649        1.03      1.03      1.26      0.01         0.01
  YS02001655YS02001652        0.72      0.72      0.98      0.01         0.01
  YS02001658YS02001655        0.42      0.42      0.72      0.01         0.01
  YS02001661YS02001658        0.22      0.22      0.42      0.01         0.01
  YS02001664YS02001661        0.06      0.06      0.28      0.01         0.01
  YS02001745YS02001748        0.03      0.03      0.35      0.01         0.01
  YS02001748YS02001751        0.40      0.40      0.52      0.01         0.01
  YS02001751YS02001754        0.52      0.52      0.85      0.01         0.01
  YS02001754YS02001757        0.91      0.91      1.34      0.01         0.01
  YS02001757CaochengTiaoxuchi        1.14      1.34      1.55      0.65         0.39
  YS02001759YS02001757        1.22      1.22      1.34      0.20         0.22
  YS02001762YS02001759        1.18      1.18      1.22      0.01         0.02
  YS02001765YS02001762        1.12      1.12      1.18      0.01         0.01
  YS02001767YS02001765        1.07      1.07      1.12      0.01         0.03
  YS02001770YS02001767        1.07      1.07      1.07      0.81         0.74
  YS02001774YS02001770        1.03      1.03      1.15      0.01         0.01
  YS02001779YS02001774        0.82      0.82      1.15      0.01         0.01
  YS02001783YS02001784        0.79      0.82      0.79      1.02         0.79
  YS02001784YS02001785        0.66      0.79      0.66      1.38         0.66
  YS02001786YS02001788        0.01      0.66      0.01      1.17         0.01
  YS02001790YS02001791        0.01      0.01      0.01      0.78         0.01
  YS02001793JiankangQianchi        0.01      0.01      2.38      0.01         0.01
  YS02001882YS02001884        0.75      0.75      0.76      0.01         0.01
  YS02001884YS02001887        0.79      0.79      0.81      0.01         0.01
  YS02001887YS02001890        0.83      0.83      0.84      0.29         0.01
  YS02001890YS02001895        0.74      0.74      0.86      0.01         0.01
  YS02001895YS02001898        0.73      0.73      0.74      0.01         0.01
  YS02001898YS02001901        0.74      0.74      0.79      0.01         0.01
  YS02001901YS02001904        0.78      0.78      0.79      0.01         0.01
  YS02001904YS02001907        0.78      0.78      1.15      0.01         0.01
  YS02001907YS02006553        1.39      1.39      1.49      0.01         0.01
  YS02001910YS02001907        0.86      0.86      1.10      0.17         0.18
  YS02001915YS02001910        0.75      0.75      0.86      0.01         0.01
  YS02001918YS02001915        0.64      0.64      0.75      0.01         0.01
  YS02001920YS02001918        0.64      0.64      0.66      0.01         0.01
  YS02001923YS02001920        0.59      0.59      0.66      0.01         0.01
  YS02001926YS02001923        0.30      0.30      0.32      0.14         0.01
  YS02001929YS02001926        0.20      0.20      0.32      0.01         0.01
  YS02006553YS02006556        0.98      0.98      1.13      0.01         0.01
  YS02006556YS02006558        1.05      1.05      1.18      0.01         0.01
  YS02006558YS02006561        0.68      0.97      0.68      1.30         0.68
  YS02006561YS02001783        0.60      0.60      0.82      0.01         0.01
  YS02163301YS02001633        1.45      1.45      1.49      0.01         0.01
  YS02163601YS02164001        1.42      1.42      1.50      0.10         0.01
  YS02164001YS02001641        1.41      1.42      1.41      1.13         1.07
  
  
  ***************
  Pumping Summary
  ***************
  
  ---------------------------------------------------------------------------------------------------------
                                                  Min       Avg       Max     Total     Power    % Time Off
                        Percent   Number of      Flow      Flow      Flow    Volume     Usage    Pump Curve
  Pump                 Utilized   Start-Ups       LPS       LPS       LPS  10^6 ltr     Kw-hr    Low   High
  ---------------------------------------------------------------------------------------------------------
  CC-R1                   30.50          99      0.00    683.00    683.00     6.000    109.18    0.0   36.5
  CC-R2                   30.50          99      0.00    683.00    683.00     6.000    109.18    0.0   36.5
  CC-S1                   30.50          99      0.00    200.00    200.00     1.757     10.58    0.0    0.0
  CC-S2                   30.50          99      0.00    200.00    200.00     1.757     10.58    0.0    0.0
  JK-R1                    5.60         336      0.00   1000.00   1000.00     1.613      8.99    0.0    0.0
  JK-R2                    5.60         336      0.00   1000.00   1000.00     1.613      8.99    0.0    0.0
  JK-S                    26.47         239      0.00    300.00    300.00     2.287     45.56    0.0    0.0
  

  Analysis begun on:  Wed Aug  9 15:04:29 2023
  Analysis ended on:  Wed Aug  9 15:06:12 2023
  Total elapsed time: 00:01:43