
  OWA STORM WATER MANAGEMENT MODEL - VERSION v5.1.14 (OWA 2022-07-31)
  --------------------------------------------------------------

  WARNING 04: minimum elevation drop used for Conduit WS02004404WS02004405
  WARNING 03: negative offset ignored for Link YS02001904YS02001907
  
  *********************************************************
  NOTE: The summary statistics displayed in this report are
  based on results found at every computational time step,  
  not just on results from each reporting time step.
  *********************************************************
  
  ****************
  Analysis Options
  ****************
  Flow Units ............... LPS
  Process Models:
    Rainfall/Runoff ........ YES
    RDII ................... NO
    Snowmelt ............... NO
    Groundwater ............ NO
    Flow Routing ........... YES
    Ponding Allowed ........ NO
    Water Quality .......... NO
  Infiltration Method ...... HORTON
  Flow Routing Method ...... DYNWAVE
  Surcharge Method ......... EXTRAN
  Starting Date ............ 08/28/2015 08:00:00
  Ending Date .............. 08/28/2015 16:00:00
  Antecedent Dry Days ...... 8.0
  Report Time Step ......... 00:01:00
  Wet Time Step ............ 00:01:00
  Dry Time Step ............ 00:01:00
  Routing Time Step ........ 30.00 sec
  Variable Time Step ....... YES
  Maximum Trials ........... 8
  Number of Threads ........ 4
  Head Tolerance ........... 0.001500 m
  
  
  **************************        Volume         Depth
  Runoff Quantity Continuity     hectare-m            mm
  **************************     ---------       -------
  Total Precipitation ......         4.623       139.361
  Evaporation Loss .........         0.000         0.000
  Infiltration Loss ........         0.106         3.201
  Surface Runoff ...........         4.484       135.197
  Final Storage ............         0.033         0.997
  Continuity Error (%) .....        -0.024
  
  
  **************************        Volume        Volume
  Flow Routing Continuity        hectare-m      10^6 ltr
  **************************     ---------     ---------
  Dry Weather Inflow .......         0.025         0.251
  Wet Weather Inflow .......         4.485        44.847
  Groundwater Inflow .......         0.000         0.000
  RDII Inflow ..............         0.000         0.000
  External Inflow ..........         0.083         0.834
  External Outflow .........         2.023        20.227
  Flooding Loss ............         2.564        25.637
  Evaporation Loss .........         0.000         0.000
  Exfiltration Loss ........         0.000         0.000
  Initial Stored Volume ....         0.243         2.431
  Final Stored Volume ......         0.284         2.840
  Continuity Error (%) .....        -0.705
  
  
  *************************
  Highest Continuity Errors
  *************************
  Node YS02001583 (-5.66%)
  Node YS02001884 (4.76%)
  Node WS02006256 (-2.03%)
  
  
  ***************************
  Time-Step Critical Elements
  ***************************
  Link WS02006252WS02006251 (47.95%)
  Link WS02006238WS02006235 (11.30%)
  Link YS02001791YS02001793 (11.30%)
  Link WS02004404WS02004405 (9.74%)
  Link WS02003066WSF200 (5.46%)
  
  
  ********************************
  Highest Flow Instability Indexes
  ********************************
  Link WS02006113WS02006111 (46)
  Link WS02006238WS02006235 (32)
  Link WS02006252WS02006251 (26)
  Link WS02006111WS02006112 (25)
  Link WS02006235WS02006234 (24)
  
  
  *************************
  Routing Time Step Summary
  *************************
  Minimum Time Step           :     0.01 sec
  Average Time Step           :     1.88 sec
  Maximum Time Step           :    30.00 sec
  Percent in Steady State     :    -0.00
  Average Iterations per Step :     3.82
  Percent Not Converging      :    18.42
  
  
  ***************************
  Subcatchment Runoff Summary
  ***************************
  
  ------------------------------------------------------------------------------------------------------------------------------
                            Total      Total      Total      Total     Imperv       Perv      Total       Total     Peak  Runoff
                           Precip      Runon       Evap      Infil     Runoff     Runoff     Runoff      Runoff   Runoff   Coeff
  Subcatchment                 mm         mm         mm         mm         mm         mm         mm    10^6 ltr      LPS
  ------------------------------------------------------------------------------------------------------------------------------
  sub60                    139.36       0.00       0.00       1.91     121.46      14.82     136.27        1.79  1210.07   0.978
  sub61                    139.36       0.00       0.00       2.78     114.56      20.92     135.48        2.49  1682.63   0.972
  sub62                    139.36       0.00       0.00       1.27     126.94       9.88     136.82        3.75  2393.15   0.982
  sub63                    139.36       0.00       0.00       5.13      97.99      35.30     133.29        3.03  1934.11   0.956
  sub64                    139.36       0.00       0.00       2.59     117.27      18.32     135.58        3.26  1974.80   0.973
  sub65                    139.36       0.00       0.00       2.24     120.01      15.88     135.88        3.74  2217.99   0.975
  sub66                    139.36       0.00       0.00       6.35      97.88      34.07     131.95        6.15  3035.17   0.947
  sub67                    139.36       0.00       0.00       1.22     126.99       9.93     136.92        2.55  1796.53   0.983
  sub68                    139.36       0.00       0.00       2.30     118.68      17.22     135.90        3.74  2451.12   0.975
  sub69                    139.36       0.00       0.00       2.08     118.36      18.82     137.18        5.08  2951.25   0.984
  sub70                    139.36       0.00       0.00       6.95      91.82      40.43     132.25        3.82  1709.70   0.949
  sub71                    139.36       0.00       0.00       1.31     126.90       9.84     136.74        3.58  2131.43   0.981
  sub72                    139.36       0.00       0.00       1.17     128.21       8.59     136.81        1.88  1050.20   0.982
  
  
  ******************
  Node Depth Summary
  ******************
  
  ---------------------------------------------------------------------------------
                                 Average  Maximum  Maximum  Time of Max    Reported
                                   Depth    Depth      HGL   Occurrence   Max Depth
  Node                 Type       Meters   Meters   Meters  days hr:min      Meters
  ---------------------------------------------------------------------------------
  WS02003060           JUNCTION     0.25     0.38     5.32     0  03:10        0.38
  WS02003066           JUNCTION     0.21     0.30     5.85     0  03:09        0.30
  WS02003067           JUNCTION     0.53     0.70     6.02     0  03:09        0.70
  WS02003069           JUNCTION     0.28     0.43     5.01     0  02:46        0.43
  WS02003072           JUNCTION     0.34     0.50     4.87     0  02:47        0.50
  WS02003073           JUNCTION     0.20     0.30     4.36     0  02:48        0.30
  WS02004401           JUNCTION     0.62     0.85     6.85     0  02:44        0.85
  WS02004402           JUNCTION     0.65     0.88     6.84     0  03:07        0.88
  WS02004403           JUNCTION     0.67     0.89     6.82     0  02:45        0.89
  WS02004404           JUNCTION     0.75     0.96     6.81     0  02:45        0.96
  WS02004405           JUNCTION     0.75     0.96     6.81     0  03:07        0.96
  WS02004406           JUNCTION     0.76     0.96     6.79     0  02:45        0.96
  WS02004407           JUNCTION     0.19     0.30     6.61     0  03:08        0.30
  WS02004409           JUNCTION     0.42     0.67     6.44     0  02:46        0.67
  WS02004410           JUNCTION     0.44     0.68     6.40     0  02:46        0.68
  WS02004411           JUNCTION     0.47     0.69     6.37     0  03:08        0.69
  WS02004412           JUNCTION     0.49     0.70     6.34     0  02:46        0.70
  WS02004413           JUNCTION     0.65     0.86     6.33     0  03:09        0.86
  WS02006109           JUNCTION     0.68     1.33     7.95     0  01:35        1.33
  WS02006110           JUNCTION     0.68     1.01     7.59     0  01:35        0.99
  WS02006111           JUNCTION     0.19     0.90     7.60     0  00:00        0.40
  WS02006112           JUNCTION     0.78     2.68     8.56     0  00:00        1.14
  WS02006113           JUNCTION     0.29     1.40     8.29     0  00:00        0.46
  WS02006115           JUNCTION     0.50     1.65     7.79     0  00:00        0.86
  WS02006116           JUNCTION     0.59     1.06     7.10     0  00:00        0.83
  WS02006228           JUNCTION     0.67     1.24     7.89     0  01:35        1.24
  WS02006229           JUNCTION     0.65     1.17     7.86     0  01:35        1.17
  WS02006230           JUNCTION     0.65     1.18     7.92     0  01:34        1.11
  WS02006231           JUNCTION     0.46     1.40     8.53     0  03:14        0.89
  WS02006232           JUNCTION     0.60     1.53     8.57     0  03:14        1.14
  WS02006234           JUNCTION     0.53     1.47     8.62     0  03:40        1.47
  WS02006235           JUNCTION     0.57     1.48     8.65     0  03:14        1.39
  WS02006238           JUNCTION     0.60     1.52     8.67     0  03:14        1.47
  WS02006239           JUNCTION     0.57     1.89     9.10     0  01:33        1.43
  WS02006240           JUNCTION     0.54     1.60     8.89     0  01:33        1.41
  WS02006242           JUNCTION     0.61     1.55     8.82     0  01:33        1.45
  WS02006243           JUNCTION     0.52     1.42     8.84     0  03:35        1.42
  WS02006245           JUNCTION     0.52     1.39     8.87     0  03:35        1.39
  WS02006247           JUNCTION     0.54     1.32     8.82     0  03:35        1.32
  WS02006248           JUNCTION     0.50     1.10     8.69     0  01:35        1.10
  WS02006249           JUNCTION     0.54     1.09     8.69     0  01:33        1.09
  WS02006251           JUNCTION     0.54     1.41     9.08     0  01:34        1.14
  WS02006252           JUNCTION     0.38     1.50     9.74     0  01:31        0.69
  WS02006256           JUNCTION     1.11     2.35     9.28     0  01:25        2.35
  WSF200               JUNCTION     0.18     0.29     5.52     0  03:10        0.29
  YS02001580           JUNCTION     0.13     1.05     9.59     0  01:34        0.77
  YS02001583           JUNCTION     0.17     1.14     9.64     0  01:34        0.82
  YS02001586           JUNCTION     0.26     1.13     9.30     0  01:34        1.13
  YS02001590           JUNCTION     0.36     1.40     9.26     0  01:34        1.40
  YS02001593           JUNCTION     0.29     1.41     9.27     0  01:37        1.41
  YS02001596           JUNCTION     0.39     1.71     9.13     0  01:37        1.71
  YS02001600           JUNCTION     0.47     1.87     9.00     0  01:34        1.87
  YS02001601           JUNCTION     0.66     2.06     8.90     0  01:33        2.06
  YS02001602           JUNCTION     0.57     1.87     8.77     0  01:34        1.87
  YS02001605           JUNCTION     0.53     1.78     8.68     0  01:35        1.78
  YS02001607           JUNCTION     0.52     1.68     8.53     0  01:37        1.68
  YS02001610           JUNCTION     0.56     1.68     8.48     0  01:37        1.68
  YS02001613           JUNCTION     0.52     1.70     8.54     0  01:37        1.70
  YS02001616           JUNCTION     0.45     1.61     8.52     0  01:37        1.61
  YS02001619           JUNCTION     0.43     1.61     8.54     0  01:37        1.61
  YS02001622           JUNCTION     0.41     1.62     8.52     0  01:37        1.62
  YS02001625           JUNCTION     0.69     1.78     8.38     0  01:37        1.78
  YS02001629           JUNCTION     0.55     1.85     8.40     0  01:38        1.85
  YS02001633           JUNCTION     0.63     2.08     8.53     0  01:37        2.08
  YS02001641           JUNCTION     0.62     2.02     8.46     0  02:01        1.96
  YS02001644           JUNCTION     0.62     1.92     8.35     0  01:39        1.92
  YS02001647           JUNCTION     0.41     1.83     8.44     0  02:01        1.83
  YS02001649           JUNCTION     0.47     2.05     8.44     0  01:43        2.05
  YS02001652           JUNCTION     0.36     2.05     8.64     0  01:48        2.05
  YS02001655           JUNCTION     0.30     1.99     8.84     0  01:49        1.99
  YS02001658           JUNCTION     0.23     1.91     9.05     0  01:49        1.90
  YS02001661           JUNCTION     0.24     1.85     9.25     0  01:49        1.84
  YS02001664           JUNCTION     0.09     1.52     9.44     0  01:49        1.52
  YS02001745           JUNCTION     0.13     1.26     8.78     0  01:49        1.26
  YS02001748           JUNCTION     0.22     1.62     8.69     0  01:49        1.62
  YS02001751           JUNCTION     0.27     1.74     8.62     0  01:49        1.73
  YS02001754           JUNCTION     0.34     1.93     8.53     0  01:49        1.92
  YS02001757           JUNCTION     0.52     2.21     8.47     0  02:01        2.18
  YS02001759           JUNCTION     0.45     2.21     8.57     0  02:01        2.21
  YS02001762           JUNCTION     0.44     2.15     8.55     0  02:01        2.12
  YS02001765           JUNCTION     0.42     2.10     8.55     0  02:01        2.06
  YS02001767           JUNCTION     0.41     2.03     8.52     0  02:01        2.01
  YS02001770           JUNCTION     0.42     1.95     8.44     0  01:43        1.95
  YS02001774           JUNCTION     0.49     2.01     8.43     0  02:01        2.00
  YS02001779           JUNCTION     0.31     1.68     8.37     0  01:37        1.68
  YS02001783           JUNCTION     0.28     1.36     7.50     0  02:01        1.32
  YS02001784           JUNCTION     0.29     1.19     7.26     0  02:01        1.18
  YS02001786           JUNCTION     0.24     0.93     6.96     0  02:01        0.91
  YS02001788           JUNCTION     0.17     0.64     6.62     0  01:49        0.63
  YS02001790           JUNCTION     0.20     0.74     6.39     0  01:52        0.73
  YS02001791           JUNCTION     0.12     0.45     5.92     0  01:52        0.44
  YS02001793           JUNCTION     0.07     0.33     5.16     0  01:49        0.32
  YS02001882           JUNCTION     0.36     1.83     8.55     0  02:01        1.78
  YS02001884           JUNCTION     0.46     1.91     8.52     0  02:01        1.89
  YS02001887           JUNCTION     0.53     1.97     8.51     0  01:49        1.97
  YS02001890           JUNCTION     0.56     1.81     8.32     0  01:38        1.81
  YS02001895           JUNCTION     0.33     1.57     8.32     0  02:01        1.57
  YS02001898           JUNCTION     0.33     1.59     8.32     0  01:39        1.59
  YS02001901           JUNCTION     0.45     1.69     8.30     0  01:39        1.69
  YS02001904           JUNCTION     0.43     1.65     8.28     0  01:39        1.65
  YS02001907           JUNCTION     0.76     1.96     8.25     0  01:38        1.96
  YS02001910           JUNCTION     0.56     2.03     8.53     0  01:46        2.03
  YS02001915           JUNCTION     0.37     2.00     8.72     0  01:46        2.00
  YS02001918           JUNCTION     0.22     1.81     8.88     0  01:39        1.78
  YS02001920           JUNCTION     0.30     2.08     9.09     0  01:39        1.90
  YS02001923           JUNCTION     0.18     1.99     9.25     0  01:39        1.70
  YS02001926           JUNCTION     0.21     1.90     9.35     0  01:39        1.58
  YS02001929           JUNCTION     0.13     1.78     9.47     0  01:39        1.39
  YS02006553           JUNCTION     0.76     2.03     8.31     0  01:49        2.03
  YS02006556           JUNCTION     0.73     2.09     8.40     0  01:49        2.09
  YS02006558           JUNCTION     0.78     2.19     8.45     0  01:49        2.19
  YS02006561           JUNCTION     0.18     1.07     7.73     0  02:01        1.01
  YS02163301           JUNCTION     0.57     1.95     8.47     0  01:49        1.95
  YS02163601           JUNCTION     0.67     2.08     8.48     0  01:37        2.08
  YS02164001           JUNCTION     0.61     2.05     8.51     0  02:01        1.97
  CC-1                 OUTFALL      0.00     0.00     0.00     0  00:00        0.00
  CC-2                 OUTFALL      0.00     0.00     0.00     0  00:00        0.00
  JK-1                 OUTFALL      0.00     0.00     0.00     0  00:00        0.00
  JK-2                 OUTFALL      0.00     0.00     0.00     0  00:00        0.00
  WSC                  OUTFALL      0.19     0.30     0.97     0  02:49        0.30
  CC-storage           STORAGE      1.12     2.10     7.60     0  02:31        2.10
  JK-storage           STORAGE      3.93     4.25     5.05     0  01:49        4.24
  
  
  *******************
  Node Inflow Summary
  *******************
  
  -------------------------------------------------------------------------------------------------
                                  Maximum  Maximum                  Lateral       Total        Flow
                                  Lateral    Total  Time of Max      Inflow      Inflow     Balance
                                   Inflow   Inflow   Occurrence      Volume      Volume       Error
  Node                 Type           LPS      LPS  days hr:min    10^6 ltr    10^6 ltr     Percent
  -------------------------------------------------------------------------------------------------
  WS02003060           JUNCTION     16.53   553.42     0  03:10       0.476        6.92       0.040
  WS02003066           JUNCTION      0.00   536.76     0  03:09           0        6.45       0.023
  WS02003067           JUNCTION      0.00   536.72     0  03:09           0        6.45       0.068
  WS02003069           JUNCTION      0.32   553.60     0  03:10     0.00922        6.93       0.065
  WS02003072           JUNCTION      0.00   553.47     0  02:47           0        6.92       0.111
  WS02003073           JUNCTION      1.82   555.26     0  02:47      0.0524        6.97       0.090
  WS02004401           JUNCTION      0.00  1677.78     0  00:00           0        6.57       0.181
  WS02004402           JUNCTION      0.00  1171.33     0  00:01           0        6.55       0.177
  WS02004403           JUNCTION      0.00   884.75     0  00:01           0        6.54       0.172
  WS02004404           JUNCTION      0.16   832.59     0  00:01     0.00467        6.53       0.137
  WS02004405           JUNCTION      0.04   776.49     0  00:01      0.0011        6.53       0.202
  WS02004406           JUNCTION      0.00   711.76     0  00:02           0        6.51       0.342
  WS02004407           JUNCTION      0.00   537.50     0  02:45           0        6.49       0.022
  WS02004409           JUNCTION      0.00   537.26     0  03:08           0        6.49       0.049
  WS02004410           JUNCTION      0.00   537.15     0  03:08           0        6.49       0.076
  WS02004411           JUNCTION      0.00   536.98     0  03:08           0        6.48       0.096
  WS02004412           JUNCTION      0.00   536.94     0  03:09           0        6.47       0.123
  WS02004413           JUNCTION      0.00   536.91     0  03:09           0        6.47       0.220
  WS02006109           JUNCTION      1.23  1308.01     0  00:00      0.0354         6.5       0.178
  WS02006110           JUNCTION      0.00   544.98     0  01:35           0        6.47      -0.548
  WS02006111           JUNCTION      0.00  1176.04     0  00:00           0         6.5      -0.593
  WS02006112           JUNCTION      0.00  2307.30     0  00:00           0        6.54      -0.003
  WS02006113           JUNCTION      0.00   562.28     0  01:35           0        6.46      -0.757
  WS02006115           JUNCTION      0.00   899.27     0  00:00           0        6.51      -0.488
  WS02006116           JUNCTION      0.00  1098.16     0  00:01           0        6.54      -0.348
  WS02006228           JUNCTION      0.00   543.07     0  01:35           0        6.45       0.098
  WS02006229           JUNCTION      0.00   542.82     0  01:35           0        6.44       0.118
  WS02006230           JUNCTION     10.28   568.34     0  03:21       0.296        6.42       0.034
  WS02006231           JUNCTION      0.00   548.02     0  03:21           0        6.11      -0.028
  WS02006232           JUNCTION      0.00   543.24     0  03:21           0        6.12       0.110
  WS02006234           JUNCTION      0.00   536.95     0  03:21           0        6.11      -0.123
  WS02006235           JUNCTION      0.00   539.89     0  03:16           0        6.17       0.030
  WS02006238           JUNCTION      0.00   428.12     0  03:35           0        4.62      -0.051
  WS02006239           JUNCTION      0.00   424.45     0  03:40           0        4.58      -0.055
  WS02006240           JUNCTION      0.00   427.92     0  03:40           0        4.57       0.007
  WS02006242           JUNCTION      0.00   429.31     0  03:40           0        4.57       0.043
  WS02006243           JUNCTION      0.00   429.69     0  03:37           0        4.57      -0.053
  WS02006245           JUNCTION      0.00   428.75     0  03:37           0        4.58       0.097
  WS02006247           JUNCTION      0.00   427.86     0  03:37           0        4.58       0.032
  WS02006248           JUNCTION      0.00   428.33     0  03:40           0        4.58      -0.008
  WS02006249           JUNCTION      0.00   428.89     0  03:40           0        5.02       0.076
  WS02006251           JUNCTION      0.08   408.42     0  01:34     0.00222        5.02       0.040
  WS02006252           JUNCTION      0.00   400.00     0  01:31           0        4.98      -0.643
  WS02006256           JUNCTION      0.00   300.00     0  01:25           0        2.36      -1.993
  WSF200               JUNCTION      0.00   536.79     0  03:10           0        6.45       0.010
  YS02001580           JUNCTION      0.00    81.02     0  01:34           0     0.00397      -2.814
  YS02001583           JUNCTION      0.00   138.39     0  01:34           0      0.0152      -5.360
  YS02001586           JUNCTION   1709.70  1709.70     0  01:52        3.82        3.83       0.029
  YS02001590           JUNCTION      0.00   318.81     0  02:01           0        1.98      -0.020
  YS02001593           JUNCTION      0.00   318.40     0  02:01           0        1.98       0.003
  YS02001596           JUNCTION      0.00   318.20     0  02:13           0        1.98      -0.013
  YS02001600           JUNCTION      0.00   318.04     0  02:27           0        1.98       0.004
  YS02001601           JUNCTION   2951.25  3268.80     0  01:51        5.08        7.05       0.013
  YS02001602           JUNCTION      0.00   512.48     0  01:33           0        2.98       0.017
  YS02001605           JUNCTION      0.00   512.59     0  01:33           0        2.71       0.028
  YS02001607           JUNCTION      0.00   512.91     0  01:33           0        2.71       0.072
  YS02001610           JUNCTION      0.00   955.40     0  02:02           0        3.74       0.059
  YS02001613           JUNCTION      0.00   618.87     0  02:03           0        2.71       0.052
  YS02001616           JUNCTION      0.00   618.91     0  02:02           0        2.71       0.012
  YS02001619           JUNCTION   3035.17  3035.17     0  01:52        6.15        7.83      -0.004
  YS02001622           JUNCTION      0.00  1054.01     0  01:55           0        5.94      -0.003
  YS02001625           JUNCTION      0.00  1505.50     0  02:00           0        6.69       0.168
  YS02001629           JUNCTION      0.00  1138.77     0  01:51           0        4.26      -0.014
  YS02001633           JUNCTION   2218.19  2218.19     0  01:51        3.75         6.8       0.049
  YS02001641           JUNCTION      0.00  1339.11     0  01:37           0        5.56       0.049
  YS02001644           JUNCTION   1974.84  3718.00     0  01:51        3.26        9.29       0.033
  YS02001647           JUNCTION      0.00  1725.31     0  01:37           0        6.38       0.002
  YS02001649           JUNCTION      0.00  1937.36     0  01:50           0        8.94      -0.002
  YS02001652           JUNCTION      0.00  1936.76     0  01:50           0        3.03      -0.049
  YS02001655           JUNCTION      0.15  1935.52     0  01:50     0.00443        3.03       0.011
  YS02001658           JUNCTION      0.00  1934.51     0  01:50           0        3.03      -0.029
  YS02001661           JUNCTION      0.00  1933.56     0  01:50           0        3.03      -0.055
  YS02001664           JUNCTION   1934.11  1934.11     0  01:50        3.03        3.03       0.003
  YS02001745           JUNCTION   1210.07  1210.07     0  01:50        1.79        1.79       0.076
  YS02001748           JUNCTION      0.04  1210.20     0  01:50      0.0013        1.79      -0.142
  YS02001751           JUNCTION      0.01  1210.39     0  01:50    0.000317         1.8       0.048
  YS02001754           JUNCTION      0.26  1212.25     0  01:50     0.00749        1.81      -0.085
  YS02001757           JUNCTION      0.00  3128.11     0  01:47           0        14.5       0.014
  YS02001759           JUNCTION   1682.67  1682.67     0  01:50        2.49        4.46      -0.009
  YS02001762           JUNCTION      0.00   696.79     0  01:41           0        2.09       0.005
  YS02001765           JUNCTION      0.00   696.38     0  01:41           0        2.09       0.016
  YS02001767           JUNCTION      0.54   696.94     0  01:41      0.0154        2.09       0.009
  YS02001770           JUNCTION   2393.31  2796.00     0  01:50        3.75        3.92       0.005
  YS02001774           JUNCTION      0.00   852.16     0  01:58           0        1.12       0.103
  YS02001779           JUNCTION      0.01   851.80     0  01:54    0.000144        1.08      -0.049
  YS02001783           JUNCTION      0.00  1218.52     0  01:49           0        6.11      -0.000
  YS02001784           JUNCTION      1.06  1219.90     0  01:49      0.0305        6.14       0.008
  YS02001786           JUNCTION      0.06  1220.68     0  01:49     0.00162        6.14       0.010
  YS02001788           JUNCTION      0.07  1222.41     0  01:49     0.00204        6.15       0.004
  YS02001790           JUNCTION      0.15  1227.69     0  01:49     0.00446        6.15       0.040
  YS02001791           JUNCTION      0.00  1323.37     0  01:52           0        6.15      -0.052
  YS02001793           JUNCTION      0.00  1283.20     0  01:50           0        6.15      -0.002
  YS02001882           JUNCTION      0.00    29.60     0  02:01           0      0.0142       3.571
  YS02001884           JUNCTION      0.00    71.52     0  01:35           0      0.0514       4.999
  YS02001887           JUNCTION   1796.98  1799.15     0  01:49        2.56        2.59       0.166
  YS02001890           JUNCTION      0.00  1799.60     0  01:49           0        2.55       0.190
  YS02001895           JUNCTION      0.00   523.45     0  02:01           0        1.81       0.091
  YS02001898           JUNCTION      0.00   525.98     0  02:01           0        1.81      -0.034
  YS02001901           JUNCTION      0.00   518.66     0  01:57           0        1.81       0.177
  YS02001904           JUNCTION      0.00   518.23     0  01:47           0        1.82       0.146
  YS02001907           JUNCTION      0.00  3748.29     0  01:50           0        7.43       0.234
  YS02001910           JUNCTION      0.00  1993.23     0  01:58           0        5.03       0.140
  YS02001915           JUNCTION   2131.45  3182.96     0  01:51        3.58        5.57       0.024
  YS02001918           JUNCTION      0.00  1054.74     0  01:51           0        2.02      -0.003
  YS02001920           JUNCTION      2.87  1054.18     0  01:51      0.0827           2       0.048
  YS02001923           JUNCTION      0.04  1051.28     0  01:51     0.00109        1.91      -0.020
  YS02001926           JUNCTION      0.05  1049.93     0  01:51      0.0015        1.89       0.014
  YS02001929           JUNCTION   1050.20  1050.20     0  01:51        1.88        1.88      -0.063
  YS02006553           JUNCTION      0.00  1238.38     0  01:50           0        3.55       0.320
  YS02006556           JUNCTION      0.00  1236.30     0  01:50           0        3.56       0.225
  YS02006558           JUNCTION   2452.00  2452.00     0  01:50        3.77        6.72       0.055
  YS02006561           JUNCTION      0.00  1217.87     0  01:49           0        6.11      -0.005
  YS02163301           JUNCTION      0.00  1138.55     0  01:51           0        4.26       0.030
  YS02163601           JUNCTION      0.11  1314.73     0  01:37     0.00317        5.56       0.088
  YS02164001           JUNCTION      0.00  1313.15     0  01:37           0        5.56       0.034
  CC-1                 OUTFALL       0.00   683.00     0  01:37           0        5.12       0.000
  CC-2                 OUTFALL       0.00   683.00     0  01:43           0        4.39       0.000
  JK-1                 OUTFALL       0.00  1000.00     0  01:28           0        3.76       0.000
  JK-2                 OUTFALL       0.00     0.00     0  00:00           0           0       0.000 ltr
  WSC                  OUTFALL       0.00   555.24     0  02:49           0        6.96       0.000
  CC-storage           STORAGE       0.00  3127.46     0  01:47           0        16.7      -0.048
  JK-storage           STORAGE       0.00  1252.49     0  01:49           0         6.3       0.137
  
  
  **********************
  Node Surcharge Summary
  **********************
  
  Surcharging occurs when water rises above the top of the highest conduit.
  ---------------------------------------------------------------------
                                               Max. Height   Min. Depth
                                   Hours       Above Crown    Below Rim
  Node                 Type      Surcharged         Meters       Meters
  ---------------------------------------------------------------------
  WS02006109           JUNCTION        2.78          0.511        1.309
  WS02006110           JUNCTION        1.65          0.099        1.751
  WS02006111           JUNCTION        0.01          0.087        1.783
  WS02006112           JUNCTION        1.76          1.680        0.000
  WS02006113           JUNCTION        0.01          0.600        1.330
  WS02006115           JUNCTION        0.01          0.642        1.608
  WS02006116           JUNCTION        0.01          0.000        2.290
  WS02006228           JUNCTION        2.77          0.409        1.791
  WS02006229           JUNCTION        2.79          0.369        2.081
  WS02006230           JUNCTION        1.65          0.100        1.470
  WS02006231           JUNCTION        1.78          0.694        0.836
  WS02006232           JUNCTION        2.84          0.829        0.651
  WS02006234           JUNCTION        2.29          0.746        0.494
  WS02006235           JUNCTION        2.70          0.774        0.516
  WS02006238           JUNCTION        2.80          0.804        0.626
  WS02006239           JUNCTION        2.68          1.151        0.139
  WS02006240           JUNCTION        2.72          0.888        0.502
  WS02006242           JUNCTION        2.76          0.820        0.000
  WS02006243           JUNCTION        2.75          0.711        0.059
  WS02006245           JUNCTION        2.74          0.675        0.175
  WS02006247           JUNCTION        2.74          0.613        0.147
  WS02006248           JUNCTION        2.73          0.380        0.000
  WS02006249           JUNCTION        2.73          0.390        0.000
  WS02006251           JUNCTION        1.90          0.375        0.805
  WS02006252           JUNCTION        2.88          1.100        0.000
  WS02006256           JUNCTION        6.40          2.050        0.000
  YS02001580           JUNCTION        1.24          0.450        0.000
  YS02001583           JUNCTION        1.25          0.500        0.000
  YS02001586           JUNCTION        1.48          0.510        0.000
  YS02001590           JUNCTION        1.54          0.750        0.000
  YS02001593           JUNCTION        1.54          0.786        0.054
  YS02001596           JUNCTION        1.64          0.981        0.089
  YS02001600           JUNCTION        1.75          1.190        0.000
  YS02001601           JUNCTION        1.99          1.440        0.000
  YS02001602           JUNCTION        1.92          1.270        0.000
  YS02001605           JUNCTION        1.89          1.180        0.000
  YS02001607           JUNCTION        1.55          0.680        0.000
  YS02001610           JUNCTION        1.57          0.680        0.000
  YS02001613           JUNCTION        1.55          0.700        0.000
  YS02001616           JUNCTION        1.52          0.610        0.000
  YS02001619           JUNCTION        1.51          0.610        0.000
  YS02001622           JUNCTION        1.51          0.620        0.000
  YS02001625           JUNCTION        1.65          0.780        0.000
  YS02001629           JUNCTION        1.48          0.470        0.000
  YS02001633           JUNCTION        1.70          1.060        0.000
  YS02001641           JUNCTION        1.67          1.021        0.079
  YS02001644           JUNCTION        1.65          0.920        0.000
  YS02001647           JUNCTION        1.48          0.831        0.069
  YS02001649           JUNCTION        1.61          1.050        0.000
  YS02001652           JUNCTION        1.44          1.016        0.114
  YS02001655           JUNCTION        1.33          0.994        0.206
  YS02001658           JUNCTION        0.81          0.911        0.389
  YS02001661           JUNCTION        0.30          0.776        0.614
  YS02001664           JUNCTION        0.12          0.520        0.790
  YS02001745           JUNCTION        0.12          0.263        1.087
  YS02001748           JUNCTION        0.64          0.538        0.652
  YS02001751           JUNCTION        1.20          0.736        0.464
  YS02001754           JUNCTION        1.41          0.877        0.273
  YS02001757           JUNCTION        1.68          1.210        0.000
  YS02001759           JUNCTION        1.60          1.210        0.000
  YS02001762           JUNCTION        1.58          1.150        0.000
  YS02001765           JUNCTION        1.54          1.100        0.000
  YS02001767           JUNCTION        1.52          1.030        0.000
  YS02001770           JUNCTION        1.49          0.920        0.000
  YS02001774           JUNCTION        1.56          1.005        0.045
  YS02001779           JUNCTION        1.40          0.680        0.000
  YS02001783           JUNCTION        1.03          0.556        1.044
  YS02001784           JUNCTION        0.99          0.391        1.099
  YS02001786           JUNCTION        0.84          0.127        1.303
  YS02001882           JUNCTION        0.94          0.830        0.000
  YS02001884           JUNCTION        0.96          0.847        0.023
  YS02001887           JUNCTION        1.01          0.921        0.029
  YS02001890           JUNCTION        1.03          0.760        0.000
  YS02001895           JUNCTION        0.93          0.573        0.177
  YS02001898           JUNCTION        0.92          0.555        0.185
  YS02001901           JUNCTION        0.99          0.689        0.181
  YS02001904           JUNCTION        0.98          0.646        0.204
  YS02001907           JUNCTION        1.33          0.950        0.000
  YS02001910           JUNCTION        1.07          1.026        0.074
  YS02001915           JUNCTION        0.95          1.000        0.000
  YS02001918           JUNCTION        0.82          0.810        0.000
  YS02001920           JUNCTION        0.84          1.083        0.057
  YS02001923           JUNCTION        0.40          0.783        0.037
  YS02001926           JUNCTION        0.42          0.900        0.000
  YS02001929           JUNCTION        0.26          0.780        0.000
  YS02006553           JUNCTION        1.38          1.030        0.160
  YS02006556           JUNCTION        1.20          1.050        0.300
  YS02006558           JUNCTION        1.19          1.086        0.314
  YS02006561           JUNCTION        0.78          0.270        0.880
  YS02163301           JUNCTION        1.68          0.953        0.077
  YS02163601           JUNCTION        1.74          1.080        0.000
  YS02164001           JUNCTION        1.67          1.050        0.050
  
  
  *********************
  Node Flooding Summary
  *********************
  
  Flooding refers to all water that overflows a node, whether it ponds or not.
  --------------------------------------------------------------------------
                                                             Total   Maximum
                                 Maximum   Time of Max       Flood    Ponded
                        Hours       Rate    Occurrence      Volume     Depth
  Node                 Flooded       LPS   days hr:min    10^6 ltr    Meters
  --------------------------------------------------------------------------
  WS02006112              0.01   1547.89      0  00:00       0.047     0.000
  WS02006242              0.01     20.45      0  01:33       0.000     0.000
  WS02006248              0.04     16.22      0  03:17       0.001     0.000
  WS02006249              1.79    105.16      0  01:34       0.434     0.000
  WS02006252              0.01      0.91      0  01:31       0.000     0.000
  WS02006256              2.17    285.14      0  04:21       0.847     0.000
  YS02001580              0.01     16.82      0  01:34       0.000     0.000
  YS02001583              0.01     66.04      0  01:34       0.000     0.000
  YS02001586              1.03   1391.90      0  01:52       1.845     0.000
  YS02001590              0.01      4.15      0  01:34       0.000     0.000
  YS02001600              0.01      2.82      0  01:34       0.000     0.000
  YS02001601              1.40   2870.74      0  01:51       4.069     0.000
  YS02001602              1.33     62.06      0  01:43       0.276     0.000
  YS02001605              0.01      0.77      0  01:37       0.000     0.000
  YS02001607              0.01      0.89      0  01:37       0.000     0.000
  YS02001610              1.14    955.18      0  02:02       2.067     0.000
  YS02001613              0.01      1.50      0  01:37       0.000     0.000
  YS02001616              0.08     17.09      0  02:07       0.000     0.000
  YS02001619              0.33   1364.65      0  01:52       0.850     0.000
  YS02001622              0.01      1.14      0  01:37       0.000     0.000
  YS02001625              1.19   1505.27      0  01:57       3.628     0.000
  YS02001629              0.41    687.11      0  01:51       0.457     0.000
  YS02001633              0.08    177.32      0  01:50       0.033     0.000
  YS02001644              0.62   3717.52      0  01:51       3.374     0.000
  YS02001649              0.10    548.41      0  01:49       0.106     0.000
  YS02001757              0.01     14.48      0  02:01       0.000     0.000
  YS02001759              0.01     11.47      0  02:01       0.000     0.000
  YS02001762              0.01     21.54      0  02:01       0.000     0.000
  YS02001765              0.01     15.52      0  02:01       0.000     0.000
  YS02001767              0.01      6.35      0  02:01       0.000     0.000
  YS02001770              0.24   1945.04      0  01:50       0.867     0.000
  YS02001779              0.54    851.50      0  01:54       1.061     0.000
  YS02001882              0.01      5.29      0  02:01       0.000     0.000
  YS02001890              0.44   1283.14      0  01:49       0.736     0.000
  YS02001907              0.75   3747.98      0  01:50       4.445     0.000
  YS02001915              0.21   1189.99      0  01:51       0.506     0.000
  YS02001918              0.01     92.02      0  01:39       0.001     0.000
  YS02001926              0.01    113.44      0  01:39       0.000     0.000
  YS02001929              0.01    190.28      0  01:39       0.001     0.000
  YS02163601              0.01     40.46      0  02:01       0.000     0.000
  
  
  **********************
  Storage Volume Summary
  **********************
  
  --------------------------------------------------------------------------------------------------
                         Average     Avg  Evap Exfil       Maximum     Max    Time of Max    Maximum
                          Volume    Pcnt  Pcnt  Pcnt        Volume    Pcnt     Occurrence    Outflow
  Storage Unit           1000 m3    Full  Loss  Loss       1000 m3    Full    days hr:min        LPS
  --------------------------------------------------------------------------------------------------
  CC-storage               3.119      49     0     0         5.849      91       0  02:31    1766.00
  JK-storage               0.198      68     0     0         0.213      73       0  01:49    1300.00
  
  
  ***********************
  Outfall Loading Summary
  ***********************
  
  -----------------------------------------------------------
                         Flow       Avg       Max       Total
                         Freq      Flow      Flow      Volume
  Outfall Node           Pcnt       LPS       LPS    10^6 ltr
  -----------------------------------------------------------
  CC-1                  25.01    683.00    683.00       5.119
  CC-2                  21.98    683.00    683.00       4.389
  JK-1                  13.48   1000.00   1000.00       3.756
  JK-2                   0.00      0.00      0.00       0.000
  WSC                   99.99    283.21    555.24       6.963
  -----------------------------------------------------------
  System                32.09   2649.21    555.24      20.227
  
  
  ********************
  Link Flow Summary
  ********************
  
  -----------------------------------------------------------------------------
                                 Maximum  Time of Max   Maximum    Max/    Max/
                                  |Flow|   Occurrence   |Veloc|    Full    Full
  Link                 Type          LPS  days hr:min     m/sec    Flow   Depth
  -----------------------------------------------------------------------------
  1                    CONDUIT    555.24     0  02:49      2.83    0.19    0.30
  WS02003060WS02003069 CONDUIT    553.28     0  03:10      1.64    0.22    0.34
  WS02003066WSF200     CONDUIT    536.79     0  03:10      2.85    0.09    0.22
  WS02003067WS02003066 CONDUIT    536.76     0  03:09      1.21    0.17    0.42
  WS02003069WS02003072 CONDUIT    553.47     0  02:47      1.37    0.27    0.39
  WS02003072WS02003073 CONDUIT    553.44     0  02:47      1.44    1.20    0.37
  WS02004401WS02004402 CONDUIT   1171.33     0  00:01      2.51    1.41    0.86
  WS02004402WS02004403 CONDUIT    884.75     0  00:01      2.16    1.27    0.88
  WS02004403WS02004404 CONDUIT    832.43     0  00:01      1.96    0.60    0.93
  WS02004404WS02004405 CONDUIT    776.45     0  00:01      2.26    7.61    0.96
  WS02004405WS02004406 CONDUIT    711.76     0  00:02      2.15    1.40    0.96
  WS02004406WS02004407 CONDUIT    537.50     0  02:45      1.04    0.24    0.63
  WS02004407WS02004409 CONDUIT    537.26     0  03:08      1.95    0.19    0.48
  WS02004409WS02004410 CONDUIT    537.15     0  03:08      1.31    0.69    0.67
  WS02004410WS02004411 CONDUIT    536.98     0  03:08      1.19    0.73    0.69
  WS02004411WS02004412 CONDUIT    536.94     0  03:09      1.07    0.76    0.69
  WS02004412WS02004413 CONDUIT    536.91     0  03:09      1.10    0.36    0.78
  WS02004413WS02003067 CONDUIT    536.72     0  03:09      1.11    0.23    0.59
  WS02006109WS02006110 CONDUIT   1306.78     0  00:00      3.14    2.51    1.00
  WS02006110WS02006113 CONDUIT    562.28     0  01:35      1.36    0.51    1.00
  WS02006111WS02006112 CONDUIT   2307.30     0  00:00      9.18    1.10    0.91
  WS02006112WS02006115 CONDUIT    899.27     0  00:00      1.16    0.53    1.00
  WS02006113WS02006111 CONDUIT   1176.04     0  00:00      2.46    1.41    1.00
  WS02006115WS02006116 CONDUIT   1098.16     0  00:01      1.72    1.41    1.00
  WS02006116WS02004401 CONDUIT   1677.78     0  00:00      2.92    2.31    0.84
  WS02006228WS02006109 CONDUIT    543.57     0  01:35      1.40    2.37    1.00
  WS02006229WS02006228 CONDUIT    543.07     0  01:35      1.24    1.80    1.00
  WS02006230WS02006229 CONDUIT    542.82     0  01:35      1.41   12.08    1.00
  WS02006231WS02006230 CONDUIT    558.06     0  03:21      1.48    8.46    1.00
  WS02006232WS02006231 CONDUIT    548.02     0  03:21      1.42    1.15    1.00
  WS02006234WS02006232 CONDUIT    543.24     0  03:21      1.41    1.10    1.00
  WS02006235WS02006234 CONDUIT    536.95     0  03:21      1.40    5.67    1.00
  WS02006238WS02006235 CONDUIT    456.26     0  03:40      1.19    1.02    1.00
  WS02006239WS02006238 CONDUIT    428.12     0  03:35      1.11    1.37    1.00
  WS02006240WS02006239 CONDUIT    424.45     0  03:40      1.10    1.34    1.00
  WS02006242WS02006240 CONDUIT    427.92     0  03:40      1.11    1.70    1.00
  WS02006243WS02006242 CONDUIT    429.31     0  03:40      1.12    0.92    1.00
  WS02006245WS02006243 CONDUIT    429.69     0  03:37      1.12    1.27    1.00
  WS02006247WS02006245 CONDUIT    428.75     0  03:37      1.11    3.40    1.00
  WS02006248WS02006247 CONDUIT    427.86     0  03:37      1.11    0.93    1.00
  WS02006249WS02006248 CONDUIT    428.33     0  03:40      1.19    2.35    1.00
  WS02006251WS02006249 CONDUIT    428.89     0  03:40      1.23    1.24    1.00
  WS02006252WS02006251 CONDUIT    408.34     0  01:34     20.70    1.50    1.00
  WS02006256WS02006235 CONDUIT    266.88     0  06:26      3.99    2.82    1.00
  WSF200WS02003060     CONDUIT    536.89     0  03:10      2.06    0.12    0.28
  YS02001580YS02001583 CONDUIT     81.02     0  01:34      0.59    0.31    1.00
  YS02001583YS02001586 CONDUIT    138.39     0  01:34      0.58    0.21    1.00
  YS02001586YS02001590 CONDUIT    318.81     0  02:01      1.24    0.56    1.00
  YS02001590YS02001593 CONDUIT    318.40     0  02:01      1.13    2.00    1.00
  YS02001593YS02001596 CONDUIT    318.20     0  02:13      1.67    0.50    1.00
  YS02001596YS02001600 CONDUIT    318.04     0  02:27      1.24    0.62    1.00
  YS02001600YS02001601 CONDUIT    317.95     0  02:01      1.12    0.55    1.00
  YS02001601YS02001602 CONDUIT    512.48     0  01:33      1.81    1.85    1.00
  YS02001602YS02001605 CONDUIT    512.59     0  01:33      1.81   10.85    1.00
  YS02001605YS02001607 CONDUIT    512.91     0  01:33      1.81    2.81    1.00
  YS02001607YS02001610 CONDUIT    518.52     0  01:33      0.66    0.49    1.00
  YS02001610YS02001613 CONDUIT    619.16     0  02:02      0.79    0.71    1.00
  YS02001613YS02001616 CONDUIT    618.87     0  02:03      0.79    0.53    1.00
  YS02001616YS02001619 CONDUIT    618.91     0  02:02      0.79    1.07    1.00
  YS02001619YS02001622 CONDUIT   1054.01     0  01:55      1.34    1.55    1.00
  YS02001622YS02001625 CONDUIT   1053.72     0  02:00      1.34    0.56    1.00
  YS02001625YS02001629 CONDUIT    906.69     0  01:36      1.15    0.43    1.00
  YS02001629YS02163301 CONDUIT   1138.77     0  01:51      1.45    1.40    1.00
  YS02001633YS02163601 CONDUIT   1314.62     0  01:37      1.67    1.38    1.00
  YS02001641YS02001644 CONDUIT   1354.05     0  01:37      1.72    4.38    1.00
  YS02001644YS02001647 CONDUIT   1725.31     0  01:37      2.20    1.01    1.00
  YS02001647YS02001649 CONDUIT   1683.48     0  01:37      2.29    0.89    1.00
  YS02001649YS02001757 CONDUIT   1831.04     0  01:36      2.37    1.11    1.00
  YS02001652YS02001649 CONDUIT   1937.36     0  01:50      2.47    0.96    1.00
  YS02001655YS02001652 CONDUIT   1936.76     0  01:50      2.47    0.94    1.00
  YS02001658YS02001655 CONDUIT   1935.36     0  01:50      2.46    0.82    1.00
  YS02001661YS02001658 CONDUIT   1934.51     0  01:50      2.46    0.76    1.00
  YS02001664YS02001661 CONDUIT   1933.56     0  01:50      2.46    0.61    1.00
  YS02001745YS02001748 CONDUIT   1210.15     0  01:50      2.07    0.47    1.00
  YS02001748YS02001751 CONDUIT   1210.37     0  01:50      1.64    0.61    1.00
  YS02001751YS02001754 CONDUIT   1211.99     0  01:50      1.54    0.58    1.00
  YS02001754YS02001757 CONDUIT   1212.69     0  01:50      1.54    0.49    1.00
  YS02001757CaochengTiaoxuchi CONDUIT   3127.46     0  01:47      3.98    1.35    1.00
  YS02001759YS02001757 CONDUIT   1389.08     0  01:48      1.77    0.99    1.00
  YS02001762YS02001759 CONDUIT    697.04     0  01:41      0.89    0.80    1.00
  YS02001765YS02001762 CONDUIT    696.79     0  01:41      0.89    0.65    1.00
  YS02001767YS02001765 CONDUIT    696.38     0  01:41      0.89    0.88    1.00
  YS02001770YS02001767 CONDUIT    696.40     0  01:41      0.89    2.76    1.00
  YS02001774YS02001770 CONDUIT    852.16     0  01:58      1.09    0.54    1.00
  YS02001779YS02001774 CONDUIT    851.80     0  01:54      1.08    0.43    1.00
  YS02001783YS02001784 CONDUIT   1218.84     0  01:49      2.42    1.68    1.00
  YS02001784YS02001785 CONDUIT   1220.62     0  01:49      2.43    2.84    1.00
  YS02001786YS02001788 CONDUIT   1222.34     0  01:49      2.58    2.36    0.90
  YS02001788YS02001790 CONDUIT   1227.54     0  01:49      2.77    0.90    0.86
  YS02001790YS02001791 CONDUIT   1323.37     0  01:52      3.46    1.44    0.71
  YS02001791YS02001793 CONDUIT   1283.20     0  01:50      6.22    0.55    0.47
  YS02001793JiankangQianchi CONDUIT   1252.49     0  01:49      2.27    0.10    0.66
  YS02001882YS02001884 CONDUIT     29.60     0  02:01      0.21    0.03    1.00
  YS02001884YS02001887 CONDUIT     71.52     0  01:35      0.15    0.10    1.00
  YS02001887YS02001890 CONDUIT   1799.60     0  01:49      2.29    3.08    1.00
  YS02001890YS02001895 CONDUIT    523.45     0  02:01      0.67    0.24    1.00
  YS02001895YS02001898 CONDUIT    525.98     0  02:01      0.67    0.91    1.00
  YS02001898YS02001901 CONDUIT    518.66     0  01:57      0.66    0.33    1.00
  YS02001901YS02001904 CONDUIT    518.23     0  01:47      0.66    0.80    1.00
  YS02001904YS02001907 CONDUIT    518.48     0  01:54      0.66    0.18    1.00
  YS02001907YS02006553 CONDUIT   1239.10     0  01:50      1.38    1.46    1.00
  YS02001910YS02001907 CONDUIT   1993.05     0  01:57      2.54    1.12    1.00
  YS02001915YS02001910 CONDUIT   1993.23     0  01:58      2.54    0.99    1.00
  YS02001918YS02001915 CONDUIT   1055.33     0  01:51      1.34    0.58    1.00
  YS02001920YS02001918 CONDUIT   1054.74     0  01:51      1.34    1.02    1.00
  YS02001923YS02001920 CONDUIT   1051.31     0  01:51      1.34    0.47    1.00
  YS02001926YS02001923 CONDUIT   1051.24     0  01:51      1.34    1.50    1.00
  YS02001929YS02001926 CONDUIT   1049.88     0  01:51      1.34    0.50    1.00
  YS02006553YS02006556 CONDUIT   1238.38     0  01:50      1.58    1.06    1.00
  YS02006556YS02006558 CONDUIT   1236.30     0  01:50      1.57    0.98    1.00
  YS02006558YS02006561 CONDUIT   1217.87     0  01:49      4.31    2.69    1.00
  YS02006561YS02001783 CONDUIT   1218.52     0  01:49      2.42    0.63    1.00
  YS02163301YS02001633 CONDUIT   1138.55     0  01:51      1.45    1.07    1.00
  YS02163601YS02164001 CONDUIT   1313.15     0  01:37      1.67    1.16    1.00
  YS02164001YS02001641 CONDUIT   1339.11     0  01:37      1.71    1.83    1.00
  CC-R1                PUMP       683.00     0  01:37              1.00
  CC-R2                PUMP       683.00     0  01:43              1.00
  CC-S1                PUMP       200.00     0  00:34              1.00
  CC-S2                PUMP       200.00     0  01:31              1.00
  JK-R1                PUMP      1000.00     0  01:28              1.00
  JK-R2                PUMP         0.00     0  00:00              0.00
  JK-S                 PUMP       300.00     0  01:25              1.00
  
  
  ***************************
  Flow Classification Summary
  ***************************
  
  -------------------------------------------------------------------------------------
                      Adjusted    ---------- Fraction of Time in Flow Class ---------- 
                       /Actual         Up    Down  Sub   Sup   Up    Down  Norm  Inlet 
  Conduit               Length    Dry  Dry   Dry   Crit  Crit  Crit  Crit  Ltd   Ctrl  
  -------------------------------------------------------------------------------------
  1                       1.00   0.00  0.00  0.00  0.00  1.00  0.00  0.00  0.35  0.00
  WS02003060WS02003069    1.00   0.00  0.00  0.00  0.98  0.02  0.00  0.00  0.62  0.00
  WS02003066WSF200        1.00   0.01  0.00  0.00  0.00  0.99  0.00  0.00  0.74  0.00
  WS02003067WS02003066    1.00   0.01  0.00  0.00  0.99  0.00  0.00  0.00  0.00  0.00
  WS02003069WS02003072    1.00   0.00  0.00  0.00  1.00  0.00  0.00  0.00  0.63  0.00
  WS02003072WS02003073    1.00   0.00  0.00  0.00  0.00  0.00  0.00  1.00  0.00  0.00
  WS02004401WS02004402    1.00   0.00  0.00  0.00  1.00  0.00  0.00  0.00  0.00  0.00
  WS02004402WS02004403    1.00   0.00  0.00  0.00  1.00  0.00  0.00  0.00  0.00  0.00
  WS02004403WS02004404    1.00   0.00  0.00  0.00  1.00  0.00  0.00  0.00  0.00  0.00
  WS02004404WS02004405    1.00   0.00  0.00  0.00  1.00  0.00  0.00  0.00  0.00  0.00
  WS02004405WS02004406    1.00   0.00  0.00  0.00  1.00  0.00  0.00  0.00  0.00  0.00
  WS02004406WS02004407    1.00   0.00  0.00  0.00  1.00  0.00  0.00  0.00  0.00  0.00
  WS02004407WS02004409    1.00   0.00  0.00  0.00  0.99  0.01  0.00  0.00  0.99  0.00
  WS02004409WS02004410    1.00   0.00  0.00  0.00  1.00  0.00  0.00  0.00  0.00  0.00
  WS02004410WS02004411    1.00   0.00  0.00  0.00  1.00  0.00  0.00  0.00  0.00  0.00
  WS02004411WS02004412    1.00   0.00  0.00  0.00  1.00  0.00  0.00  0.00  0.00  0.00
  WS02004412WS02004413    1.00   0.00  0.00  0.00  1.00  0.00  0.00  0.00  0.00  0.00
  WS02004413WS02003067    1.00   0.00  0.00  0.00  0.00  0.00  0.99  0.00  0.00  0.00
  WS02006109WS02006110    1.00   0.00  0.00  0.00  1.00  0.00  0.00  0.00  0.00  0.00
  WS02006110WS02006113    1.00   0.00  0.00  0.00  1.00  0.00  0.00  0.00  0.00  0.00
  WS02006111WS02006112    1.00   0.00  0.00  0.00  1.00  0.00  0.00  0.00  1.00  0.00
  WS02006112WS02006115    1.00   0.00  0.00  0.00  1.00  0.00  0.00  0.00  0.00  0.00
  WS02006113WS02006111    1.00   0.00  0.00  0.00  0.00  1.00  0.00  0.00  0.14  0.00
  WS02006115WS02006116    1.00   0.00  0.00  0.00  1.00  0.00  0.00  0.00  0.00  0.00
  WS02006116WS02004401    1.00   0.00  0.00  0.00  1.00  0.00  0.00  0.00  0.00  0.00
  WS02006228WS02006109    1.00   0.00  0.00  0.00  1.00  0.00  0.00  0.00  0.00  0.00
  WS02006229WS02006228    1.00   0.00  0.00  0.00  1.00  0.00  0.00  0.00  0.00  0.00
  WS02006230WS02006229    1.00   0.00  0.00  0.00  1.00  0.00  0.00  0.00  0.03  0.00
  WS02006231WS02006230    1.00   0.00  0.00  0.00  0.37  0.00  0.63  0.00  0.00  0.00
  WS02006232WS02006231    1.00   0.00  0.00  0.00  0.98  0.00  0.02  0.00  0.00  0.00
  WS02006234WS02006232    1.00   0.00  0.00  0.00  1.00  0.00  0.00  0.00  0.14  0.00
  WS02006235WS02006234    1.00   0.04  0.00  0.00  0.91  0.00  0.05  0.00  0.00  0.00
  WS02006238WS02006235    1.00   0.00  0.00  0.00  1.00  0.00  0.00  0.00  0.01  0.00
  WS02006239WS02006238    1.00   0.03  0.00  0.00  0.96  0.00  0.00  0.01  0.03  0.00
  WS02006240WS02006239    1.00   0.03  0.00  0.00  0.89  0.00  0.00  0.07  0.03  0.00
  WS02006242WS02006240    1.00   0.02  0.02  0.00  0.95  0.00  0.01  0.00  0.00  0.00
  WS02006243WS02006242    1.00   0.01  0.00  0.00  0.96  0.00  0.00  0.02  0.36  0.00
  WS02006245WS02006243    1.00   0.01  0.00  0.00  0.92  0.00  0.00  0.07  0.00  0.00
  WS02006247WS02006245    1.00   0.01  0.00  0.00  0.97  0.00  0.00  0.03  0.00  0.00
  WS02006248WS02006247    1.00   0.01  0.00  0.00  0.97  0.00  0.00  0.02  0.37  0.00
  WS02006249WS02006248    1.00   0.00  0.01  0.00  0.78  0.00  0.22  0.00  0.00  0.00
  WS02006251WS02006249    1.00   0.00  0.00  0.00  1.00  0.00  0.00  0.00  0.36  0.00
  WS02006252WS02006251    1.00   0.02  0.13  0.00  0.24  0.00  0.61  0.00  0.00  0.00
  WS02006256WS02006235    1.00   0.00  0.00  0.00  0.99  0.01  0.00  0.00  0.02  0.00
  WSF200WS02003060        1.00   0.00  0.01  0.00  0.22  0.77  0.00  0.00  0.48  0.00
  YS02001580YS02001583    1.00   0.16  0.57  0.00  0.27  0.00  0.00  0.00  0.61  0.00
  YS02001583YS02001586    1.00   0.17  0.51  0.00  0.31  0.00  0.00  0.00  0.62  0.00
  YS02001586YS02001590    1.00   0.04  0.00  0.00  0.65  0.09  0.00  0.21  0.31  0.00
  YS02001590YS02001593    1.00   0.04  0.00  0.00  0.22  0.00  0.73  0.00  0.00  0.00
  YS02001593YS02001596    1.00   0.04  0.00  0.00  0.25  0.01  0.00  0.70  0.01  0.00
  YS02001596YS02001600    1.00   0.04  0.00  0.00  0.32  0.01  0.00  0.63  0.03  0.00
  YS02001600YS02001601    1.00   0.04  0.00  0.00  0.96  0.00  0.00  0.00  0.56  0.00
  YS02001601YS02001602    1.00   0.04  0.00  0.00  0.96  0.00  0.00  0.00  0.00  0.00
  YS02001602YS02001605    1.00   0.04  0.00  0.00  0.96  0.00  0.00  0.00  0.00  0.00
  YS02001605YS02001607    1.00   0.04  0.00  0.00  0.96  0.00  0.00  0.00  0.00  0.00
  YS02001607YS02001610    1.00   0.04  0.00  0.00  0.96  0.00  0.00  0.00  0.01  0.00
  YS02001610YS02001613    1.00   0.04  0.00  0.00  0.96  0.00  0.00  0.00  0.00  0.00
  YS02001613YS02001616    1.00   0.04  0.00  0.00  0.96  0.00  0.00  0.00  0.00  0.00
  YS02001616YS02001619    1.00   0.04  0.00  0.00  0.96  0.00  0.00  0.00  0.00  0.00
  YS02001619YS02001622    1.00   0.04  0.00  0.00  0.96  0.00  0.00  0.00  0.26  0.00
  YS02001622YS02001625    1.00   0.04  0.00  0.00  0.96  0.00  0.00  0.00  0.02  0.00
  YS02001625YS02001629    1.00   0.04  0.02  0.00  0.28  0.00  0.66  0.00  0.00  0.00
  YS02001629YS02163301    1.00   0.05  0.00  0.00  0.95  0.00  0.00  0.00  0.00  0.00
  YS02001633YS02163601    1.00   0.00  0.00  0.00  1.00  0.00  0.00  0.00  0.14  0.00
  YS02001641YS02001644    1.00   0.00  0.00  0.00  1.00  0.00  0.00  0.00  0.00  0.00
  YS02001644YS02001647    1.00   0.00  0.05  0.00  0.95  0.00  0.00  0.00  0.00  0.00
  YS02001647YS02001649    1.00   0.00  0.05  0.00  0.57  0.37  0.00  0.00  0.57  0.00
  YS02001649YS02001757    1.00   0.00  0.00  0.00  0.87  0.12  0.00  0.00  0.43  0.00
  YS02001652YS02001649    1.00   0.00  0.00  0.00  0.97  0.03  0.00  0.00  0.64  0.00
  YS02001655YS02001652    1.00   0.00  0.00  0.00  0.31  0.02  0.00  0.68  0.05  0.00
  YS02001658YS02001655    1.00   0.00  0.05  0.00  0.79  0.16  0.00  0.00  0.59  0.00
  YS02001661YS02001658    1.00   0.05  0.00  0.00  0.53  0.42  0.00  0.00  0.61  0.00
  YS02001664YS02001661    1.00   0.04  0.00  0.00  0.85  0.11  0.00  0.00  0.79  0.00
  YS02001745YS02001748    1.00   0.00  0.00  0.00  0.21  0.00  0.00  0.79  0.03  0.00
  YS02001748YS02001751    1.00   0.00  0.00  0.00  0.85  0.15  0.00  0.00  0.70  0.00
  YS02001751YS02001754    1.00   0.00  0.00  0.00  0.27  0.01  0.00  0.72  0.04  0.00
  YS02001754YS02001757    1.00   0.00  0.00  0.00  1.00  0.00  0.00  0.00  0.69  0.00
  YS02001757CaochengTiaoxuchi    1.00   0.00  0.00  0.00  1.00  0.00  0.00  0.00  0.27  0.00
  YS02001759YS02001757    1.00   0.00  0.00  0.00  1.00  0.00  0.00  0.00  0.53  0.00
  YS02001762YS02001759    1.00   0.00  0.00  0.00  1.00  0.00  0.00  0.00  0.04  0.00
  YS02001765YS02001762    1.00   0.00  0.00  0.00  1.00  0.00  0.00  0.00  0.58  0.00
  YS02001767YS02001765    1.00   0.00  0.00  0.00  1.00  0.00  0.00  0.00  0.01  0.00
  YS02001770YS02001767    1.00   0.00  0.00  0.00  1.00  0.00  0.00  0.00  0.00  0.00
  YS02001774YS02001770    1.00   0.00  0.04  0.00  0.89  0.00  0.07  0.00  0.01  0.00
  YS02001779YS02001774    1.00   0.00  0.00  0.00  1.00  0.00  0.00  0.00  0.68  0.00
  YS02001783YS02001784    1.00   0.00  0.06  0.00  0.94  0.00  0.00  0.00  0.54  0.00
  YS02001784YS02001785    1.00   0.00  0.00  0.00  1.00  0.00  0.00  0.00  0.14  0.00
  YS02001786YS02001788    1.00   0.00  0.00  0.00  0.77  0.23  0.00  0.00  0.00  0.00
  YS02001788YS02001790    1.00   0.00  0.00  0.00  0.14  0.86  0.00  0.00  0.76  0.00
  YS02001790YS02001791    1.00   0.00  0.00  0.00  0.01  0.99  0.00  0.00  0.15  0.00
  YS02001791YS02001793    1.00   0.00  0.00  0.00  0.00  1.00  0.00  0.00  0.03  0.00
  YS02001793JiankangQianchi    1.00   0.00  0.00  0.00  1.00  0.00  0.00  0.00  0.88  0.00
  YS02001882YS02001884    1.00   0.05  0.00  0.00  0.95  0.00  0.00  0.00  0.00  0.00
  YS02001884YS02001887    1.00   0.02  0.02  0.00  0.96  0.00  0.00  0.00  0.00  0.00
  YS02001887YS02001890    1.00   0.00  0.00  0.00  0.99  0.00  0.01  0.00  0.00  0.00
  YS02001890YS02001895    1.00   0.00  0.05  0.00  0.95  0.00  0.00  0.00  0.00  0.00
  YS02001895YS02001898    1.00   0.05  0.00  0.00  0.93  0.00  0.02  0.00  0.00  0.00
  YS02001898YS02001901    1.00   0.05  0.00  0.00  0.95  0.00  0.00  0.00  0.00  0.00
  YS02001901YS02001904    1.00   0.05  0.00  0.00  0.95  0.00  0.00  0.00  0.00  0.00
  YS02001904YS02001907    1.00   0.00  0.05  0.00  0.95  0.00  0.00  0.00  0.00  0.00
  YS02001907YS02006553    1.00   0.00  0.01  0.00  0.99  0.00  0.00  0.00  0.00  0.00
  YS02001910YS02001907    1.00   0.00  0.00  0.00  0.99  0.00  0.00  0.01  0.11  0.00
  YS02001915YS02001910    1.00   0.00  0.00  0.00  0.99  0.01  0.00  0.00  0.12  0.00
  YS02001918YS02001915    1.00   0.00  0.00  0.00  0.99  0.01  0.00  0.00  0.67  0.00
  YS02001920YS02001918    1.00   0.00  0.00  0.00  1.00  0.00  0.00  0.00  0.01  0.00
  YS02001923YS02001920    1.00   0.00  0.00  0.00  1.00  0.00  0.00  0.00  0.86  0.00
  YS02001926YS02001923    1.00   0.00  0.03  0.00  0.12  0.00  0.86  0.00  0.00  0.00
  YS02001929YS02001926    1.00   0.00  0.04  0.00  0.96  0.00  0.00  0.00  0.77  0.00
  YS02006553YS02006556    1.00   0.00  0.00  0.00  1.00  0.00  0.00  0.00  0.03  0.00
  YS02006556YS02006558    1.00   0.00  0.00  0.00  1.00  0.00  0.00  0.00  0.00  0.00
  YS02006558YS02006561    1.00   0.06  0.00  0.00  0.11  0.83  0.00  0.00  0.15  0.00
  YS02006561YS02001783    1.00   0.06  0.00  0.00  0.16  0.78  0.00  0.00  0.63  0.00
  YS02163301YS02001633    1.00   0.00  0.05  0.00  0.95  0.00  0.00  0.00  0.00  0.00
  YS02163601YS02164001    1.00   0.00  0.03  0.00  0.97  0.00  0.00  0.00  0.00  0.00
  YS02164001YS02001641    1.00   0.00  0.02  0.00  0.97  0.00  0.00  0.00  0.05  0.00
  
  
  *************************
  Conduit Surcharge Summary
  *************************
  
  ----------------------------------------------------------------------------
                                                           Hours        Hours 
                         --------- Hours Full --------   Above Full   Capacity
  Conduit                Both Ends  Upstream  Dnstream   Normal Flow   Limited
  ----------------------------------------------------------------------------
  WS02003072WS02003073        0.01      0.01      0.01      2.09         0.01
  WS02004401WS02004402        0.01      0.01      0.01      0.01         0.01
  WS02004402WS02004403        0.01      0.01      0.01      0.01         0.01
  WS02004404WS02004405        0.01      0.01      0.01      4.11         0.01
  WS02004405WS02004406        0.01      0.01      0.01      1.67         0.01
  WS02006109WS02006110        1.64      1.65      2.83      1.67         0.01
  WS02006110WS02006113        0.01      0.01      2.81      0.01         0.01
  WS02006111WS02006112        0.01      0.01      2.95      0.01         0.01
  WS02006112WS02006115        0.01      0.01      1.75      0.01         0.01
  WS02006113WS02006111        0.01      0.01      0.01      0.01         0.01
  WS02006115WS02006116        0.01      0.01      0.01      0.01         0.01
  WS02006116WS02004401        0.01      0.01      0.01      0.01         0.01
  WS02006228WS02006109        2.78      2.83      2.78      3.15         2.78
  WS02006229WS02006228        2.77      2.79      2.77      2.96         2.73
  WS02006230WS02006229        2.87      2.93      2.87      4.29         2.87
  WS02006231WS02006230        1.65      1.65      1.84      4.10         0.01
  WS02006232WS02006231        1.77      1.77      2.84      1.89         0.01
  WS02006234WS02006232        2.54      2.54      2.84      1.79         1.90
  WS02006235WS02006234        2.26      2.28      2.68      4.06         0.04
  WS02006238WS02006235        2.77      2.77      2.83      0.01         0.02
  WS02006239WS02006238        2.77      2.77      2.80      2.76         2.38
  WS02006240WS02006239        2.68      2.75      2.68      2.75         2.13
  WS02006242WS02006240        2.72      2.72      2.77      2.82         0.01
  WS02006243WS02006242        2.75      2.75      2.76      0.01         0.14
  WS02006245WS02006243        2.74      2.74      2.75      1.07         1.26
  WS02006247WS02006245        2.74      2.74      2.74      4.02         2.72
  WS02006248WS02006247        2.74      2.74      2.74      0.01         0.19
  WS02006249WS02006248        2.73      2.73      2.73      3.99         0.01
  WS02006251WS02006249        2.73      2.73      2.73      2.75         2.53
  WS02006252WS02006251        2.76      2.76      2.87      2.76         0.01
  WS02006256WS02006235        3.86      4.08      6.17      2.15         0.11
  YS02001580YS02001583        1.24      1.24      1.33      0.01         0.01
  YS02001583YS02001586        1.25      1.25      1.48      0.01         0.01
  YS02001586YS02001590        1.49      1.49      1.54      0.01         0.01
  YS02001590YS02001593        1.54      1.54      1.56      1.54         0.01
  YS02001593YS02001596        1.55      1.55      1.64      0.01         0.01
  YS02001596YS02001600        1.68      1.68      1.75      0.01         0.01
  YS02001600YS02001601        1.79      1.79      1.99      0.01         0.01
  YS02001601YS02001602        1.92      1.92      2.02      1.73         0.01
  YS02001602YS02001605        1.89      1.89      1.92      2.61         0.01
  YS02001605YS02001607        1.86      1.89      1.87      1.90         1.80
  YS02001607YS02001610        1.55      1.55      1.57      0.01         0.01
  YS02001610YS02001613        1.55      1.55      1.57      0.01         0.01
  YS02001613YS02001616        1.52      1.52      1.55      0.01         0.01
  YS02001616YS02001619        1.51      1.51      1.52      0.31         0.27
  YS02001619YS02001622        1.50      1.51      1.51      1.48         1.37
  YS02001622YS02001625        1.51      1.51      1.65      0.01         0.01
  YS02001625YS02001629        1.48      1.48      1.65      0.01         0.01
  YS02001629YS02163301        1.66      1.66      1.68      0.23         0.06
  YS02001633YS02163601        1.70      1.70      1.74      0.10         0.10
  YS02001641YS02001644        1.65      1.67      1.65      2.05         1.61
  YS02001644YS02001647        1.48      1.48      1.65      0.01         0.01
  YS02001647YS02001649        1.48      1.48      1.61      0.01         0.01
  YS02001649YS02001757        1.60      1.61      1.68      0.06         0.04
  YS02001652YS02001649        1.47      1.47      1.61      0.01         0.01
  YS02001655YS02001652        1.33      1.33      1.44      0.01         0.01
  YS02001658YS02001655        0.81      0.81      1.33      0.01         0.01
  YS02001661YS02001658        0.30      0.30      0.81      0.01         0.01
  YS02001664YS02001661        0.12      0.12      0.39      0.01         0.01
  YS02001745YS02001748        0.12      0.12      0.64      0.01         0.01
  YS02001748YS02001751        0.79      0.79      1.20      0.01         0.01
  YS02001751YS02001754        1.20      1.20      1.41      0.01         0.01
  YS02001754YS02001757        1.43      1.43      1.68      0.01         0.01
  YS02001757CaochengTiaoxuchi        1.68      1.68      2.76      0.55         0.55
  YS02001759YS02001757        1.60      1.60      1.68      0.01         0.02
  YS02001762YS02001759        1.58      1.58      1.60      0.01         0.02
  YS02001765YS02001762        1.54      1.54      1.58      0.01         0.01
  YS02001767YS02001765        1.52      1.52      1.54      0.01         0.02
  YS02001770YS02001767        1.51      1.51      1.52      0.93         0.81
  YS02001774YS02001770        1.49      1.49      1.56      0.01         0.01
  YS02001779YS02001774        1.40      1.40      1.56      0.01         0.01
  YS02001783YS02001784        0.99      1.03      0.99      1.24         0.99
  YS02001784YS02001785        0.84      0.99      0.84      1.61         0.84
  YS02001786YS02001788        0.01      0.84      0.01      1.43         0.01
  YS02001790YS02001791        0.01      0.01      0.01      0.97         0.01
  YS02001793JiankangQianchi        0.01      0.01      7.99      0.01         0.01
  YS02001882YS02001884        0.94      0.94      0.96      0.01         0.01
  YS02001884YS02001887        1.00      1.00      1.01      0.01         0.01
  YS02001887YS02001890        1.03      1.03      1.05      0.35         0.01
  YS02001890YS02001895        0.93      0.93      1.08      0.01         0.01
  YS02001895YS02001898        0.92      0.92      0.93      0.01         0.01
  YS02001898YS02001901        0.93      0.93      0.99      0.01         0.01
  YS02001901YS02001904        0.98      0.98      0.99      0.01         0.01
  YS02001904YS02001907        0.98      0.98      1.39      0.01         0.01
  YS02001907YS02006553        1.62      1.62      1.65      0.09         0.09
  YS02001910YS02001907        1.07      1.07      1.33      0.24         0.24
  YS02001915YS02001910        0.95      0.95      1.07      0.01         0.02
  YS02001918YS02001915        0.82      0.82      0.95      0.01         0.01
  YS02001920YS02001918        0.82      0.82      0.84      0.04         0.01
  YS02001923YS02001920        0.76      0.76      0.84      0.01         0.01
  YS02001926YS02001923        0.40      0.40      0.42      0.20         0.01
  YS02001929YS02001926        0.26      0.26      0.42      0.01         0.01
  YS02006553YS02006556        1.20      1.20      1.38      0.03         0.04
  YS02006556YS02006558        1.27      1.27      1.43      0.01         0.01
  YS02006558YS02006561        0.87      1.19      0.87      1.56         0.87
  YS02006561YS02001783        0.78      0.78      1.03      0.01         0.01
  YS02163301YS02001633        1.68      1.68      1.72      0.09         0.01
  YS02163601YS02164001        1.67      1.67      1.74      0.07         0.01
  YS02164001YS02001641        1.67      1.67      1.67      0.85         0.81
  
  
  ***************
  Pumping Summary
  ***************
  
  ---------------------------------------------------------------------------------------------------------
                                                  Min       Avg       Max     Total     Power    % Time Off
                        Percent   Number of      Flow      Flow      Flow    Volume     Usage    Pump Curve
  Pump                 Utilized   Start-Ups       LPS       LPS       LPS  10^6 ltr     Kw-hr    Low   High
  ---------------------------------------------------------------------------------------------------------
  CC-R1                   26.02           1      0.00    683.00    683.00     5.118    101.76    0.0   37.3
  CC-R2                   22.31           1      0.00    683.00    683.00     4.389     88.25    0.0   43.5
  CC-S1                   52.59          98      0.00    200.00    200.00     3.029     15.77    0.0   18.5
  CC-S2                   34.53           1      0.00    200.00    200.00     1.989      9.49    0.0   28.1
  JK-R1                   13.05         296      0.00   1000.00   1000.00     3.758     51.14    0.0    0.0
  JK-R2                    0.00           0      0.00      0.00      0.00     0.000      0.00    0.0    0.0
  JK-S                    27.04         173      0.00    300.00    300.00     2.336     27.59    0.0    0.0
  

  Analysis begun on:  Wed Aug  9 15:44:59 2023
  Analysis ended on:  Wed Aug  9 15:47:13 2023
  Total elapsed time: 00:02:14