
  OWA STORM WATER MANAGEMENT MODEL - VERSION v5.1.14 (OWA 2022-07-31)
  --------------------------------------------------------------

  WARNING 04: minimum elevation drop used for Conduit WS02004404WS02004405
  WARNING 03: negative offset ignored for Link YS02001904YS02001907
  
  *********************************************************
  NOTE: The summary statistics displayed in this report are
  based on results found at every computational time step,  
  not just on results from each reporting time step.
  *********************************************************
  
  ****************
  Analysis Options
  ****************
  Flow Units ............... LPS
  Process Models:
    Rainfall/Runoff ........ YES
    RDII ................... NO
    Snowmelt ............... NO
    Groundwater ............ NO
    Flow Routing ........... YES
    Ponding Allowed ........ NO
    Water Quality .......... NO
  Infiltration Method ...... HORTON
  Flow Routing Method ...... DYNWAVE
  Surcharge Method ......... EXTRAN
  Starting Date ............ 08/28/2015 08:00:00
  Ending Date .............. 08/28/2015 16:00:00
  Antecedent Dry Days ...... 8.0
  Report Time Step ......... 00:01:00
  Wet Time Step ............ 00:01:00
  Dry Time Step ............ 00:01:00
  Routing Time Step ........ 30.00 sec
  Variable Time Step ....... YES
  Maximum Trials ........... 8
  Number of Threads ........ 4
  Head Tolerance ........... 0.001500 m
  
  
  **************************        Volume         Depth
  Runoff Quantity Continuity     hectare-m            mm
  **************************     ---------       -------
  Total Precipitation ......         5.130        84.691
  Evaporation Loss .........         0.000         0.000
  Infiltration Loss ........         0.260         4.297
  Surface Runoff ...........         4.810        79.401
  Final Storage ............         0.061         1.011
  Continuity Error (%) .....        -0.021
  
  
  **************************        Volume        Volume
  Flow Routing Continuity        hectare-m      10^6 ltr
  **************************     ---------     ---------
  Dry Weather Inflow .......         0.630         6.296
  Wet Weather Inflow .......         4.809        48.089
  Groundwater Inflow .......         0.000         0.000
  RDII Inflow ..............         0.000         0.000
  External Inflow ..........         0.105         1.045
  External Outflow .........         3.646        36.459
  Flooding Loss ............         1.882        18.815
  Evaporation Loss .........         0.000         0.000
  Exfiltration Loss ........         0.000         0.000
  Initial Stored Volume ....         0.303         3.031
  Final Stored Volume ......         0.319         3.187
  Continuity Error (%) .....         0.000
  
  
  *************************
  Highest Continuity Errors
  *************************
  Node WS02006256 (6.63%)
  Node YS02001884 (3.64%)
  Node YS02001583 (-3.59%)
  Node HS02004817 (1.46%)
  Node WS02006252 (-1.19%)
  
  
  ***************************
  Time-Step Critical Elements
  ***************************
  Link WS02006280WS02006229 (43.48%)
  Link YS02001791YS02001793 (17.47%)
  Link WS02006238WS02006235 (6.05%)
  Link WS02004404WS02004405 (3.79%)
  Link YS02001783YS02001784 (3.56%)
  
  
  ********************************
  Highest Flow Instability Indexes
  ********************************
  Link WS02004404WS02004405 (44)
  Link WS02006238WS02006235 (41)
  Link WS02006113WS02006111 (40)
  Link WS02004403WS02004404 (38)
  Link WS02006229WS02006228 (38)
  
  
  *************************
  Routing Time Step Summary
  *************************
  Minimum Time Step           :     0.00 sec
  Average Time Step           :     2.47 sec
  Maximum Time Step           :     6.46 sec
  Percent in Steady State     :    -0.00
  Average Iterations per Step :     4.91
  Percent Not Converging      :    31.33
  
  
  ***************************
  Subcatchment Runoff Summary
  ***************************
  
  ------------------------------------------------------------------------------------------------------------------------------
                            Total      Total      Total      Total     Imperv       Perv      Total       Total     Peak  Runoff
                           Precip      Runon       Evap      Infil     Runoff     Runoff     Runoff      Runoff   Runoff   Coeff
  Subcatchment                 mm         mm         mm         mm         mm         mm         mm    10^6 ltr      LPS
  ------------------------------------------------------------------------------------------------------------------------------
  sub0                      84.69       0.00       0.00       1.06      77.54       4.87      82.41        0.07    13.38   0.973
  sub1                      84.69       0.00       0.00       1.85      74.13       7.47      81.60        0.54    97.01   0.964
  sub10                     84.69       0.00       0.00       1.30      76.64       5.48      82.12        0.91   163.99   0.970
  sub11                     84.69       0.00       0.00       1.27      76.66       5.51      82.17        0.95   178.19   0.970
  sub12                     84.69       0.00       0.00       2.07      72.52       8.95      81.47        0.71   139.71   0.962
  sub14                     84.69       0.00       0.00       1.46      75.82       6.17      81.99        0.78   143.63   0.968
  sub15                     84.69       0.00       0.00       5.73      58.32      19.68      77.99        1.34   231.15   0.921
  sub16                     84.69       0.00       0.00       5.94      55.85      22.01      77.86        0.82   149.60   0.919
  sub17                     84.69       0.00       0.00       5.79      56.68      21.32      77.99        0.67   122.08   0.921
  sub2                      84.69       0.00       0.00       8.12      52.45      23.22      75.67        0.71   117.28   0.893
  sub22                     84.69       0.00       0.00       8.66      47.50      27.76      75.26        4.75   812.86   0.889
  sub23                     84.69       0.00       0.00       7.08      52.50      24.26      76.76        3.66   635.63   0.906
  sub3                      84.69       0.00       0.00       8.79      52.41      22.55      74.95        1.69   273.69   0.885
  sub4                      84.69       0.00       0.00       2.06      73.95       7.26      81.20        1.69   274.42   0.959
  sub5                      84.69       0.00       0.00       1.13      77.46       4.80      82.26        0.93   166.94   0.971
  sub60                     84.69       0.00       0.00       1.95      73.33       8.21      81.54        1.07   201.32   0.963
  sub61                     84.69       0.00       0.00       2.84      69.17      11.56      80.73        1.48   279.17   0.953
  sub62                     84.69       0.00       0.00       1.30      76.63       5.47      82.11        2.25   404.03   0.969
  sub63                     84.69       0.00       0.00       5.27      59.17      19.30      78.46        1.78   322.20   0.926
  sub64                     84.69       0.00       0.00       2.66      70.78      10.04      80.82        1.94   336.48   0.954
  sub65                     84.69       0.00       0.00       2.30      72.42       8.71      81.13        2.23   380.30   0.958
  sub66                     84.69       0.00       0.00       6.45      59.05      18.11      77.15        3.60   588.81   0.911
  sub67                     84.69       0.00       0.00       1.24      76.69       5.54      82.22        1.53   298.10   0.971
  sub68                     84.69       0.00       0.00       2.36      71.65       9.50      81.15        2.23   409.53   0.958
  sub69                     84.69       0.00       0.00       2.16      71.87      10.55      82.42        3.05   508.28   0.973
  sub7                      84.69       0.00       0.00       1.43      75.84       6.20      82.03        0.28    52.39   0.969
  sub70                     84.69       0.00       0.00       7.01      55.72      21.79      77.51        2.24   351.86   0.915
  sub71                     84.69       0.00       0.00       1.34      76.58       5.43      82.02        2.14   366.73   0.968
  sub72                     84.69       0.00       0.00       1.20      77.35       4.73      82.08        1.13   184.10   0.969
  sub8                      84.69       0.00       0.00       1.45      75.82       6.18      82.00        0.52    97.18   0.968
  sub9                      84.69       0.00       0.00       1.45      75.82       6.17      81.99        0.39    72.83   0.968
  
  
  ******************
  Node Depth Summary
  ******************
  
  ---------------------------------------------------------------------------------
                                 Average  Maximum  Maximum  Time of Max    Reported
                                   Depth    Depth      HGL   Occurrence   Max Depth
  Node                 Type       Meters   Meters   Meters  days hr:min      Meters
  ---------------------------------------------------------------------------------
  HS02004478           JUNCTION     0.41     1.53    10.76     0  01:41        1.33
  HS02004479           JUNCTION     0.52     1.69    10.90     0  01:41        1.54
  HS02004480           JUNCTION     0.48     1.66    10.90     0  01:41        1.49
  HS02004770           JUNCTION     0.49     1.42    11.25     0  01:37        1.42
  HS02004777           JUNCTION     0.50     1.48    11.28     0  01:37        1.45
  HS02004785           JUNCTION     0.38     1.49    11.39     0  01:37        1.35
  HS02004788           JUNCTION     0.35     1.42    11.32     0  01:37        1.34
  HS02004792           JUNCTION     0.46     1.60    11.12     0  01:39        1.60
  HS02004799           JUNCTION     0.57     1.76    10.97     0  01:41        1.67
  HS02004802           JUNCTION     0.51     1.73    10.86     0  01:41        1.44
  HS02004807           JUNCTION     0.47     1.82    10.99     0  01:41        1.42
  HS02004817           JUNCTION     0.78     2.25    11.10     0  01:41        1.77
  HS02004824           JUNCTION     0.32     1.79    11.20     0  01:41        1.24
  HS02004830           JUNCTION     0.30     1.81    11.28     0  01:41        1.18
  HS02004837           JUNCTION     0.24     1.79    11.37     0  01:41        1.08
  HS02004842           JUNCTION     0.53     2.15    11.42     0  01:41        1.37
  HS02004848           JUNCTION     0.21     1.87    11.47     0  01:41        1.01
  HS02004852           JUNCTION     0.22     1.94    11.45     0  01:41        1.36
  HS02004856           JUNCTION     0.28     1.99    11.41     0  01:41        1.10
  HS02004862           JUNCTION     0.24     1.96    11.34     0  01:41        1.09
  HS02004870           JUNCTION     0.23     1.93    11.21     0  01:41        1.10
  HS02004876           JUNCTION     0.33     2.00    11.03     0  01:41        1.26
  HS02004881           JUNCTION     0.25     2.11    11.14     0  01:58        1.14
  HS02004901           JUNCTION     0.50     1.42    11.24     0  01:37        1.42
  WS02001211           JUNCTION     0.67     0.84     5.67     0  01:20        0.82
  WS02001212           JUNCTION     0.42     0.60     5.67     0  01:16        0.58
  WS02001213           JUNCTION     0.65     0.93     5.69     0  01:19        0.85
  WS02003059           JUNCTION     0.72     0.94     5.62     0  01:18        0.93
  WS02003060           JUNCTION     0.45     0.67     5.60     0  02:22        0.67
  WS02003066           JUNCTION     0.27     0.44     6.00     0  01:41        0.44
  WS02003067           JUNCTION     0.61     0.91     6.23     0  01:13        0.88
  WS02003069           JUNCTION     0.50     0.76     5.34     0  02:22        0.76
  WS02003072           JUNCTION     0.56     0.79     5.16     0  02:23        0.79
  WS02003073           JUNCTION     0.34     0.50     4.57     0  02:23        0.50
  WS02004138           JUNCTION     0.13     0.14     7.39     0  00:29        0.14
  WS02004139           JUNCTION     0.61     0.76     5.67     0  01:17        0.76
  WS02004401           JUNCTION     0.97     2.66     8.66     0  01:11        2.66
  WS02004402           JUNCTION     0.97     2.74     8.70     0  01:22        2.74
  WS02004403           JUNCTION     0.96     2.43     8.36     0  01:11        1.64
  WS02004404           JUNCTION     1.01     2.38     8.23     0  01:11        1.64
  WS02004405           JUNCTION     0.99     2.25     8.10     0  01:11        1.59
  WS02004406           JUNCTION     0.96     1.80     7.63     0  01:11        1.47
  WS02004407           JUNCTION     0.38     0.81     7.12     0  01:41        0.81
  WS02004409           JUNCTION     0.70     1.40     7.17     0  01:14        1.31
  WS02004410           JUNCTION     0.69     1.39     7.11     0  01:14        1.23
  WS02004411           JUNCTION     0.67     1.21     6.89     0  01:14        1.15
  WS02004412           JUNCTION     0.66     1.18     6.82     0  01:14        1.07
  WS02004413           JUNCTION     0.77     2.05     7.52     0  01:13        1.12
  WS02006109           JUNCTION     1.37     2.64     9.26     0  01:11        2.64
  WS02006110           JUNCTION     1.24     2.76     9.34     0  01:11        2.37
  WS02006111           JUNCTION     0.69     2.32     9.03     0  01:11        2.30
  WS02006112           JUNCTION     1.24     2.68     8.56     0  01:11        2.66
  WS02006113           JUNCTION     0.78     2.61     9.51     0  01:11        2.01
  WS02006115           JUNCTION     0.93     2.81     8.95     0  01:11        2.48
  WS02006116           JUNCTION     0.98     2.83     8.87     0  01:11        2.50
  WS02006228           JUNCTION     1.48     3.03     9.68     0  01:22        3.03
  WS02006229           JUNCTION     1.52     3.21     9.91     0  01:41        3.12
  WS02006230           JUNCTION     1.38     2.65     9.39     0  01:11        2.65
  WS02006231           JUNCTION     1.06     2.24     9.36     0  01:09        2.21
  WS02006232           JUNCTION     1.12     2.18     9.22     0  01:10        2.18
  WS02006234           JUNCTION     0.97     1.96     9.12     0  01:10        1.96
  WS02006235           JUNCTION     0.96     2.00     9.16     0  01:10        2.00
  WS02006238           JUNCTION     0.97     2.06     9.21     0  01:11        2.03
  WS02006239           JUNCTION     0.89     2.03     9.24     0  01:10        2.03
  WS02006240           JUNCTION     0.81     2.10     9.39     0  01:10        2.10
  WS02006242           JUNCTION     0.82     1.55     8.82     0  01:10        1.55
  WS02006243           JUNCTION     0.69     1.48     8.90     0  01:11        1.37
  WS02006245           JUNCTION     0.65     1.56     9.04     0  01:11        1.34
  WS02006247           JUNCTION     0.64     1.47     8.97     0  01:11        1.23
  WS02006248           JUNCTION     0.57     1.10     8.69     0  00:01        1.10
  WS02006249           JUNCTION     0.59     1.09     8.69     0  00:01        1.09
  WS02006251           JUNCTION     0.80     2.21     9.88     0  01:11        2.06
  WS02006252           JUNCTION     0.52     1.50     9.74     0  00:00        1.50
  WS02006253           JUNCTION     0.93     3.52    11.16     0  01:11        2.47
  WS02006256           JUNCTION     1.21     2.35     9.28     0  00:00        2.35
  WS02006280           JUNCTION     0.60     1.73    10.00     0  01:41        1.62
  WS02006284           JUNCTION     0.80     1.93    10.33     0  01:41        1.76
  WS02006287           JUNCTION     0.51     1.70    10.65     0  01:41        1.49
  WSF200               JUNCTION     0.28     0.55     5.78     0  01:14        0.50
  YS02001580           JUNCTION     0.22     1.05     9.59     0  01:14        0.78
  YS02001583           JUNCTION     0.26     1.14     9.64     0  01:35        0.82
  YS02001586           JUNCTION     0.41     1.13     9.30     0  01:14        1.13
  YS02001590           JUNCTION     0.55     1.40     9.26     0  01:22        1.38
  YS02001593           JUNCTION     0.49     1.36     9.22     0  01:22        1.29
  YS02001596           JUNCTION     0.66     1.70     9.12     0  01:22        1.66
  YS02001600           JUNCTION     0.78     1.87     9.00     0  01:14        1.87
  YS02001601           JUNCTION     0.98     2.06     8.90     0  01:13        2.06
  YS02001602           JUNCTION     0.85     1.87     8.77     0  01:40        1.87
  YS02001605           JUNCTION     0.77     1.78     8.68     0  01:22        1.78
  YS02001607           JUNCTION     0.67     1.58     8.42     0  02:22        1.56
  YS02001610           JUNCTION     0.71     1.62     8.42     0  02:22        1.61
  YS02001613           JUNCTION     0.66     1.57     8.41     0  02:22        1.56
  YS02001616           JUNCTION     0.59     1.50     8.41     0  02:20        1.50
  YS02001619           JUNCTION     0.57     1.49     8.42     0  02:20        1.49
  YS02001622           JUNCTION     0.55     1.44     8.35     0  02:21        1.44
  YS02001625           JUNCTION     0.80     1.67     8.27     0  02:20        1.67
  YS02001629           JUNCTION     0.70     1.64     8.19     0  02:22        1.64
  YS02001633           JUNCTION     0.75     1.64     8.10     0  02:20        1.64
  YS02001641           JUNCTION     0.66     1.36     7.80     0  02:20        1.36
  YS02001644           JUNCTION     0.64     1.27     7.70     0  02:22        1.26
  YS02001647           JUNCTION     0.37     0.92     7.53     0  02:22        0.90
  YS02001649           JUNCTION     0.42     1.03     7.42     0  02:22        1.01
  YS02001652           JUNCTION     0.28     0.81     7.41     0  02:22        0.80
  YS02001655           JUNCTION     0.16     0.55     7.40     0  02:21        0.55
  YS02001658           JUNCTION     0.10     0.25     7.39     0  01:41        0.25
  YS02001661           JUNCTION     0.16     0.31     7.71     0  01:41        0.31
  YS02001664           JUNCTION     0.09     0.21     8.14     0  01:41        0.21
  YS02001745           JUNCTION     0.07     0.19     7.71     0  01:40        0.19
  YS02001748           JUNCTION     0.09     0.22     7.30     0  01:40        0.22
  YS02001751           JUNCTION     0.10     0.35     7.22     0  02:22        0.34
  YS02001754           JUNCTION     0.20     0.66     7.27     0  02:26        0.64
  YS02001757           JUNCTION     0.41     0.97     7.23     0  02:22        0.97
  YS02001759           JUNCTION     0.34     0.88     7.24     0  02:21        0.87
  YS02001762           JUNCTION     0.32     0.85     7.25     0  02:21        0.84
  YS02001765           JUNCTION     0.30     0.81     7.26     0  02:21        0.80
  YS02001767           JUNCTION     0.29     0.78     7.27     0  02:23        0.78
  YS02001770           JUNCTION     0.30     0.81     7.31     0  02:23        0.80
  YS02001774           JUNCTION     0.37     0.88     7.30     0  02:22        0.88
  YS02001779           JUNCTION     0.18     0.64     7.32     0  02:22        0.60
  YS02001783           JUNCTION     0.41     1.20     7.34     0  02:23        1.19
  YS02001784           JUNCTION     0.41     1.09     7.16     0  02:23        1.09
  YS02001786           JUNCTION     0.34     0.86     6.89     0  02:21        0.86
  YS02001788           JUNCTION     0.26     0.61     6.59     0  02:24        0.61
  YS02001790           JUNCTION     0.30     0.71     6.36     0  02:24        0.70
  YS02001791           JUNCTION     0.19     0.43     5.90     0  02:23        0.42
  YS02001793           JUNCTION     0.09     0.21     5.04     0  02:23        0.21
  YS02001882           JUNCTION     0.48     1.57     8.28     0  02:22        1.55
  YS02001884           JUNCTION     0.57     1.67     8.29     0  02:22        1.67
  YS02001887           JUNCTION     0.64     1.74     8.28     0  02:22        1.74
  YS02001890           JUNCTION     0.67     1.77     8.28     0  02:22        1.77
  YS02001895           JUNCTION     0.45     1.53     8.27     0  02:22        1.52
  YS02001898           JUNCTION     0.45     1.53     8.27     0  02:21        1.53
  YS02001901           JUNCTION     0.57     1.65     8.26     0  02:21        1.65
  YS02001904           JUNCTION     0.55     1.64     8.27     0  02:21        1.64
  YS02001907           JUNCTION     0.87     1.96     8.25     0  02:21        1.96
  YS02001910           JUNCTION     0.67     1.77     8.28     0  02:22        1.77
  YS02001915           JUNCTION     0.48     1.59     8.30     0  02:23        1.57
  YS02001918           JUNCTION     0.27     1.24     8.30     0  02:23        1.23
  YS02001920           JUNCTION     0.35     1.31     8.32     0  02:23        1.29
  YS02001923           JUNCTION     0.19     1.05     8.31     0  02:23        1.05
  YS02001926           JUNCTION     0.20     0.87     8.31     0  02:22        0.86
  YS02001929           JUNCTION     0.11     0.62     8.32     0  02:22        0.62
  YS02006553           JUNCTION     0.87     1.96     8.24     0  02:21        1.96
  YS02006556           JUNCTION     0.84     1.90     8.21     0  02:21        1.90
  YS02006558           JUNCTION     0.88     1.93     8.19     0  02:21        1.92
  YS02006561           JUNCTION     0.24     0.86     7.52     0  02:21        0.85
  YS02163301           JUNCTION     0.71     1.63     8.15     0  02:21        1.63
  YS02163601           JUNCTION     0.75     1.55     7.95     0  02:21        1.54
  YS02164001           JUNCTION     0.67     1.40     7.86     0  02:22        1.40
  YSB1154              JUNCTION     0.66     1.90    10.95     0  01:41        1.71
  YSB1171              JUNCTION     0.80     1.95    10.85     0  01:41        1.86
  YSB1174              JUNCTION     0.61     1.78    10.89     0  01:41        1.64
  YSB6556              JUNCTION     0.55     1.76    10.92     0  01:41        1.60
  CC-1                 OUTFALL      0.00     0.00     0.00     0  00:00        0.00
  CC-2                 OUTFALL      0.00     0.00     0.00     0  00:00        0.00
  JK-1                 OUTFALL      0.00     0.00     0.00     0  00:00        0.00
  JK-2                 OUTFALL      0.00     0.00     0.00     0  00:00        0.00
  WSC                  OUTFALL      0.34     0.50     1.17     0  02:24        0.50
  CC-storage           STORAGE      0.52     0.80     6.30     0  00:00        0.76
  JK-storage           STORAGE      1.20     4.22     5.02     0  01:15        3.99
  XR-storage           STORAGE      7.84     9.26     7.26     0  08:00        9.26
  
  
  *******************
  Node Inflow Summary
  *******************
  
  -------------------------------------------------------------------------------------------------
                                  Maximum  Maximum                  Lateral       Total        Flow
                                  Lateral    Total  Time of Max      Inflow      Inflow     Balance
                                   Inflow   Inflow   Occurrence      Volume      Volume       Error
  Node                 Type           LPS      LPS  days hr:min    10^6 ltr    10^6 ltr     Percent
  -------------------------------------------------------------------------------------------------
  HS02004478           JUNCTION      0.00  2088.72     0  02:21           0        14.2      -0.017
  HS02004479           JUNCTION      0.00   309.25     0  01:41           0        1.66       0.049
  HS02004480           JUNCTION      0.00  2015.58     0  01:39           0        12.6       0.017
  HS02004770           JUNCTION    635.63   705.87     0  01:37        3.66        4.26       0.060
  HS02004777           JUNCTION      0.03   721.64     0  01:37    0.000864        4.08       0.130
  HS02004785           JUNCTION      0.15   729.63     0  01:37     0.00432        4.08       0.008
  HS02004788           JUNCTION    232.82   863.37     0  02:09        1.39        5.47       0.004
  HS02004792           JUNCTION    813.14  1583.80     0  01:38        4.76        10.2       0.002
  HS02004799           JUNCTION    143.63  1719.86     0  01:38        0.78          11       0.051
  HS02004802           JUNCTION      0.00   372.98     0  03:06           0        1.56       0.223
  HS02004807           JUNCTION    178.19   335.07     0  01:32       0.954        1.82       0.238
  HS02004817           JUNCTION      0.60   324.36     0  01:38      0.0173        1.15       1.478
  HS02004824           JUNCTION    274.47   557.90     0  01:38         1.7        2.38       0.023
  HS02004830           JUNCTION      0.15   565.33     0  01:38     0.00432        1.93       0.069
  HS02004837           JUNCTION    170.34   728.72     0  01:38        1.09        2.75       0.023
  HS02004842           JUNCTION      0.00   710.47     0  01:39           0        2.49       0.526
  HS02004848           JUNCTION    273.69   931.53     0  01:39        1.69        4.04       0.005
  HS02004852           JUNCTION      0.00   909.20     0  01:39           0        3.93       0.019
  HS02004856           JUNCTION     72.83   973.04     0  01:40       0.394        4.32       0.033
  HS02004862           JUNCTION    117.48  1053.14     0  01:40       0.711        5.03       0.003
  HS02004870           JUNCTION     97.18  1126.24     0  01:40       0.524        5.55       0.008
  HS02004876           JUNCTION     97.01  1154.59     0  01:41       0.543         6.1       0.035
  HS02004881           JUNCTION     52.39  1208.92     0  01:41       0.276        6.38      -0.070
  HS02004901           JUNCTION    149.60   365.98     0  02:21       0.815       0.984       0.175
  WS02001211           JUNCTION      7.35   366.59     0  01:18       0.212        5.45       0.610
  WS02001212           JUNCTION      0.00   448.56     0  01:16           0        5.42       0.290
  WS02001213           JUNCTION      0.00   421.65     0  01:15           0        5.42       0.324
  WS02003059           JUNCTION      0.00   470.09     0  01:14           0        5.42       0.591
  WS02003060           JUNCTION     16.53  1467.54     0  01:14       0.476        16.7       0.088
  WS02003066           JUNCTION      0.00  1229.69     0  01:41           0        10.8       0.014
  WS02003067           JUNCTION      0.00  1229.82     0  01:41           0        10.8       0.040
  WS02003069           JUNCTION      0.32  1440.54     0  02:22     0.00922        16.6       0.094
  WS02003072           JUNCTION      0.00  1440.44     0  02:23           0        16.6       0.127
  WS02003073           JUNCTION      1.82  1442.22     0  02:23      0.0524        16.6       0.129
  WS02004138           JUNCTION      0.00   380.00     0  00:00           0        5.25       0.054
  WS02004139           JUNCTION      0.32   289.17     0  01:17     0.00924        5.26       0.509
  WS02004401           JUNCTION      0.00  1229.85     0  01:40           0        10.9       0.095
  WS02004402           JUNCTION      0.00  1230.03     0  01:40           0        10.9       0.097
  WS02004403           JUNCTION      0.00  1230.82     0  01:11           0        10.9       0.094
  WS02004404           JUNCTION      0.16  1233.07     0  01:11     0.00467        10.9       0.076
  WS02004405           JUNCTION      0.04  1236.37     0  01:11      0.0011        10.9       0.117
  WS02004406           JUNCTION      0.00  1250.15     0  01:11           0        10.9       0.196
  WS02004407           JUNCTION      0.00  1260.68     0  01:11           0        10.8       0.014
  WS02004409           JUNCTION      0.00  1308.59     0  01:12           0        10.8       0.035
  WS02004410           JUNCTION      0.00  1329.90     0  01:12           0        10.8       0.045
  WS02004411           JUNCTION      0.00  1278.99     0  01:13           0        10.8       0.054
  WS02004412           JUNCTION      0.00  1229.80     0  01:42           0        10.8       0.073
  WS02004413           JUNCTION      0.00  1229.81     0  01:41           0        10.8       0.128
  WS02006109           JUNCTION      1.23  1258.95     0  01:11      0.0354        10.3       0.082
  WS02006110           JUNCTION      0.00  1260.78     0  01:11           0        10.3       0.063
  WS02006111           JUNCTION      0.00  1264.99     0  01:11           0        10.3       0.004
  WS02006112           JUNCTION    122.08  1237.37     0  01:11       0.669        10.9       0.171
  WS02006113           JUNCTION      0.00  1262.21     0  01:11           0        10.3       0.023
  WS02006115           JUNCTION      0.00  1234.38     0  01:11           0        10.9       0.061
  WS02006116           JUNCTION      0.00  1230.08     0  01:40           0        10.9      -0.001
  WS02006228           JUNCTION      0.00  1255.86     0  01:11           0        10.3       0.060
  WS02006229           JUNCTION      0.00  2088.99     0  02:21           0        15.2       0.058
  WS02006230           JUNCTION     10.28   918.63     0  02:21       0.296        6.05       0.180
  WS02006231           JUNCTION      0.00   642.78     0  01:09           0        4.05      -0.127
  WS02006232           JUNCTION      0.00   621.65     0  01:09           0        4.03       0.171
  WS02006234           JUNCTION      0.00   621.86     0  01:09           0           4      -0.059
  WS02006235           JUNCTION      0.00   598.48     0  01:09           0        3.69       0.086
  WS02006238           JUNCTION      0.00   591.50     0  01:10           0        3.61      -0.063
  WS02006239           JUNCTION      0.00   693.05     0  01:10           0        3.56      -0.056
  WS02006240           JUNCTION      0.00   823.41     0  01:10           0        3.53      -0.107
  WS02006242           JUNCTION      0.00   785.92     0  01:10           0        3.51      -0.072
  WS02006243           JUNCTION      0.00   726.77     0  01:11           0        2.69       0.056
  WS02006245           JUNCTION      0.00   792.07     0  00:02           0        2.69       0.440
  WS02006247           JUNCTION      0.00   796.08     0  00:02           0        2.69      -0.030
  WS02006248           JUNCTION      0.00   862.21     0  00:01           0        3.18      -0.024
  WS02006249           JUNCTION      0.00  1297.95     0  02:16           0        8.13       0.135
  WS02006251           JUNCTION      0.08  1507.38     0  02:00     0.00222        8.28      -0.119
  WS02006252           JUNCTION      0.00  2000.00     0  01:21           0        4.58      -1.176
  WS02006253           JUNCTION     13.38  1224.83     0  01:41      0.0667        6.55      -0.042
  WS02006256           JUNCTION      0.00  1500.00     0  00:06           0        1.84       7.103
  WS02006280           JUNCTION      0.00  2089.39     0  02:21           0        14.1      -0.020
  WS02006284           JUNCTION      0.10  2088.72     0  02:21     0.00275        14.1      -0.003
  WS02006287           JUNCTION      0.00  2088.71     0  02:21           0        14.1       0.045
  WSF200               JUNCTION      0.00  1229.67     0  01:41           0        10.8       0.008
  YS02001580           JUNCTION      0.00    78.18     0  01:35           0      0.0084      -0.800
  YS02001583           JUNCTION      0.00   110.69     0  01:35           0      0.0311      -3.468
  YS02001586           JUNCTION    351.86   351.88     0  02:22        2.24        2.26       0.085
  YS02001590           JUNCTION      0.00   318.19     0  02:28           0        2.21      -0.042
  YS02001593           JUNCTION      0.00   318.07     0  02:15           0        2.21       0.017
  YS02001596           JUNCTION      0.00   317.99     0  02:21           0        2.21      -0.008
  YS02001600           JUNCTION      0.00   318.23     0  02:28           0        2.21       0.029
  YS02001601           JUNCTION    508.28   816.67     0  01:42        3.05        5.26       0.017
  YS02001602           JUNCTION      0.00   546.28     0  01:13           0        3.76       0.018
  YS02001605           JUNCTION      0.00   546.26     0  01:13           0        3.75       0.024
  YS02001607           JUNCTION      0.00   546.03     0  01:13           0        3.75       0.047
  YS02001610           JUNCTION      0.00   546.25     0  01:13           0        3.75       0.072
  YS02001613           JUNCTION      0.00   551.07     0  01:13           0        3.75       0.050
  YS02001616           JUNCTION      0.00   559.65     0  01:13           0        3.76       0.013
  YS02001619           JUNCTION    588.81   970.90     0  02:21         3.6        7.35      -0.006
  YS02001622           JUNCTION      0.00   970.35     0  02:19           0        7.34      -0.002
  YS02001625           JUNCTION      0.00   970.41     0  02:19           0        7.34       0.148
  YS02001629           JUNCTION      0.00   970.49     0  02:20           0        7.34       0.001
  YS02001633           JUNCTION    380.50  1341.36     0  02:20        2.24        9.58       0.036
  YS02001641           JUNCTION      0.00  1343.25     0  02:21           0        9.59       0.028
  YS02001644           JUNCTION    336.52  1666.83     0  02:21        1.94        11.5       0.030
  YS02001647           JUNCTION      0.00  1666.70     0  02:21           0        11.5       0.004
  YS02001649           JUNCTION      0.00  2000.38     0  02:22           0        13.3       0.001
  YS02001652           JUNCTION      0.00   352.71     0  02:27           0        1.78      -0.135
  YS02001655           JUNCTION      0.15   322.07     0  01:41     0.00443        1.78       0.107
  YS02001658           JUNCTION      0.00   322.02     0  01:41           0        1.78      -0.005
  YS02001661           JUNCTION      0.00   322.12     0  01:41           0        1.78       0.023
  YS02001664           JUNCTION    322.20   322.20     0  01:41        1.78        1.78      -0.010
  YS02001745           JUNCTION    201.33   201.33     0  01:40        1.07        1.07      -0.004
  YS02001748           JUNCTION      0.04   201.53     0  01:40      0.0013        1.07      -0.006
  YS02001751           JUNCTION      0.01   204.27     0  01:40    0.000317        1.07       0.125
  YS02001754           JUNCTION      0.26   323.25     0  02:33     0.00749        1.08      -0.114
  YS02001757           JUNCTION      0.00  2934.76     0  02:24           0        18.1       0.006
  YS02001759           JUNCTION    279.21   680.61     0  02:23        1.48        3.75      -0.012
  YS02001762           JUNCTION      0.00   421.56     0  02:24           0        2.27       0.007
  YS02001765           JUNCTION      0.00   425.76     0  02:17           0        2.27       0.007
  YS02001767           JUNCTION      0.54   433.97     0  02:24      0.0154        2.27       0.013
  YS02001770           JUNCTION    404.18   432.04     0  02:24        2.25        2.32      -0.015
  YS02001774           JUNCTION      0.00    77.47     0  01:05           0       0.117       1.078
  YS02001779           JUNCTION      0.01    59.48     0  02:23    0.000144      0.0505       0.064
  YS02001783           JUNCTION      0.00  1138.87     0  02:22           0        7.08       0.003
  YS02001784           JUNCTION      1.06  1139.84     0  02:22      0.0305        7.11       0.008
  YS02001786           JUNCTION      0.06  1139.43     0  02:22     0.00162        7.11       0.010
  YS02001788           JUNCTION      0.07  1139.62     0  02:22     0.00204        7.12       0.005
  YS02001790           JUNCTION      0.15  1148.96     0  02:24     0.00446        7.12       0.006
  YS02001791           JUNCTION      0.00  1262.83     0  02:23           0        7.12      -0.007
  YS02001793           JUNCTION      0.00  1216.78     0  02:23           0        7.12       0.003
  YS02001882           JUNCTION      0.00    69.09     0  01:11           0      0.0195       3.722
  YS02001884           JUNCTION      0.00   124.24     0  01:11           0      0.0683       3.782
  YS02001887           JUNCTION    298.55   313.31     0  01:39        1.54        1.59       0.263
  YS02001890           JUNCTION      0.00   316.08     0  01:39           0        1.53       0.338
  YS02001895           JUNCTION      0.00   318.22     0  01:39           0        1.53       0.185
  YS02001898           JUNCTION      0.00   308.67     0  01:40           0        1.53      -0.045
  YS02001901           JUNCTION      0.00   310.64     0  01:40           0        1.53       0.217
  YS02001904           JUNCTION      0.00   311.67     0  01:40           0        1.55       0.172
  YS02001907           JUNCTION      0.00   801.42     0  02:23           0        4.91       0.370
  YS02001910           JUNCTION      0.00   560.00     0  02:28           0        3.36       0.212
  YS02001915           JUNCTION    366.75   559.58     0  02:28        2.14        3.36       0.042
  YS02001918           JUNCTION      0.00   246.83     0  01:49           0        1.22       0.026
  YS02001920           JUNCTION      2.87   244.57     0  02:28      0.0827        1.21       0.087
  YS02001923           JUNCTION      0.04   228.32     0  01:46     0.00109        1.13      -0.026
  YS02001926           JUNCTION      0.05   204.06     0  02:23      0.0015        1.13       0.062
  YS02001929           JUNCTION    184.10   184.10     0  01:42        1.13        1.13      -0.008
  YS02006553           JUNCTION      0.00   777.82     0  02:26           0         4.9       0.247
  YS02006556           JUNCTION      0.00   778.17     0  02:24           0        4.92       0.166
  YS02006558           JUNCTION    410.41  1140.28     0  02:22        2.26        7.13       0.046
  YS02006561           JUNCTION      0.00  1139.08     0  02:22           0        7.08       0.001
  YS02163301           JUNCTION      0.00   971.44     0  02:20           0        7.35       0.023
  YS02163601           JUNCTION      0.11  1341.71     0  02:20     0.00317        9.57       0.054
  YS02164001           JUNCTION      0.00  1341.85     0  02:20           0        9.57       0.030
  YSB1154              JUNCTION    166.94   166.94     0  01:41       0.932       0.932       0.150
  YSB1171              JUNCTION      0.00   306.88     0  01:40           0        1.65       0.383
  YSB1174              JUNCTION    139.71   139.71     0  01:40       0.712       0.712       0.171
  YSB6556              JUNCTION      0.00   167.35     0  01:40           0       0.934       0.137
  CC-1                 OUTFALL       0.00  3415.00     0  00:01           0        8.13       0.000
  CC-2                 OUTFALL       0.00  3415.00     0  01:21           0        6.31       0.000
  JK-1                 OUTFALL       0.00  5000.00     0  01:16           0        2.43       0.000
  JK-2                 OUTFALL       0.00  5000.00     0  01:16           0        2.98       0.000
  WSC                  OUTFALL       0.00  1442.17     0  02:24           0        16.6       0.000
  CC-storage           STORAGE       0.00  2784.88     0  02:23           0        20.3      -0.098
  JK-storage           STORAGE       0.00  1218.31     0  02:23           0        7.27      -0.329
  XR-storage           STORAGE     200.00   200.00     0  00:00        5.76        6.36       0.001
  
  
  **********************
  Node Surcharge Summary
  **********************
  
  Surcharging occurs when water rises above the top of the highest conduit.
  ---------------------------------------------------------------------
                                               Max. Height   Min. Depth
                                   Hours       Above Crown    Below Rim
  Node                 Type      Surcharged         Meters       Meters
  ---------------------------------------------------------------------
  HS02004478           JUNCTION        1.09          0.613        0.327
  HS02004479           JUNCTION        1.63          0.893        0.157
  HS02004480           JUNCTION        1.70          0.954        0.146
  HS02004770           JUNCTION        1.52          0.720        0.000
  HS02004777           JUNCTION        1.54          0.780        0.000
  HS02004785           JUNCTION        1.39          0.790        0.000
  HS02004788           JUNCTION        1.39          0.720        0.000
  HS02004792           JUNCTION        1.64          0.900        0.000
  HS02004799           JUNCTION        1.82          1.060        0.000
  HS02004802           JUNCTION        1.69          1.019        0.191
  HS02004807           JUNCTION        1.65          1.119        0.101
  HS02004817           JUNCTION        2.11          1.551        0.189
  HS02004824           JUNCTION        1.39          1.094        0.216
  HS02004830           JUNCTION        0.87          1.112        0.218
  HS02004837           JUNCTION        0.61          1.085        0.255
  HS02004842           JUNCTION        1.54          1.450        0.070
  HS02004848           JUNCTION        0.38          1.166        0.204
  HS02004852           JUNCTION        0.60          1.239        0.181
  HS02004856           JUNCTION        0.49          1.217        0.083
  HS02004862           JUNCTION        0.66          1.257        0.043
  HS02004870           JUNCTION        0.71          1.226        0.174
  HS02004876           JUNCTION        1.29          1.297        0.263
  HS02004881           JUNCTION        0.90          1.408        0.042
  HS02004901           JUNCTION        1.54          0.720        0.000
  WS02004401           JUNCTION        2.18          1.660        0.000
  WS02004402           JUNCTION        2.23          1.740        0.000
  WS02004403           JUNCTION        2.24          1.431        0.599
  WS02004404           JUNCTION        2.33          1.382        1.398
  WS02004405           JUNCTION        2.32          1.246        1.554
  WS02004406           JUNCTION        2.31          0.796        1.654
  WS02004409           JUNCTION        1.95          0.395        1.965
  WS02004410           JUNCTION        1.94          0.386        2.154
  WS02004411           JUNCTION        1.93          0.205        2.325
  WS02004412           JUNCTION        1.77          0.176        2.134
  WS02004413           JUNCTION        2.05          1.048        1.152
  WS02006109           JUNCTION        2.51          1.820        0.000
  WS02006110           JUNCTION        2.40          1.850        0.000
  WS02006111           JUNCTION        2.04          1.512        0.358
  WS02006112           JUNCTION        2.44          1.680        0.000
  WS02006113           JUNCTION        2.06          1.814        0.116
  WS02006115           JUNCTION        2.12          1.799        0.451
  WS02006116           JUNCTION        2.14          1.771        0.519
  WS02006228           JUNCTION        2.51          2.200        0.000
  WS02006229           JUNCTION        1.97          1.031        0.039
  WS02006230           JUNCTION        2.31          1.570        0.000
  WS02006231           JUNCTION        2.32          1.530        0.000
  WS02006232           JUNCTION        2.40          1.480        0.000
  WS02006234           JUNCTION        2.28          1.240        0.000
  WS02006235           JUNCTION        2.31          1.290        0.000
  WS02006238           JUNCTION        2.33          1.344        0.086
  WS02006239           JUNCTION        2.27          1.290        0.000
  WS02006240           JUNCTION        2.25          1.390        0.000
  WS02006242           JUNCTION        2.31          0.820        0.000
  WS02006243           JUNCTION        2.22          0.770        0.000
  WS02006245           JUNCTION        2.21          0.850        0.000
  WS02006247           JUNCTION        2.22          0.760        0.000
  WS02006248           JUNCTION        2.19          0.380        0.000
  WS02006249           JUNCTION        2.21          0.390        0.000
  WS02006251           JUNCTION        1.88          1.180        0.000
  WS02006252           JUNCTION        2.07          1.100        0.000
  WS02006253           JUNCTION        1.95          2.480        0.000
  WS02006256           JUNCTION        6.72          2.050        0.000
  WS02006280           JUNCTION        1.80          0.682        0.098
  WS02006284           JUNCTION        1.70          0.647        0.153
  WS02006287           JUNCTION        1.57          0.695        0.195
  YS02001580           JUNCTION        1.44          0.450        0.000
  YS02001583           JUNCTION        1.44          0.500        0.000
  YS02001586           JUNCTION        1.68          0.510        0.000
  YS02001590           JUNCTION        1.84          0.750        0.000
  YS02001593           JUNCTION        1.84          0.737        0.103
  YS02001596           JUNCTION        2.01          0.975        0.095
  YS02001600           JUNCTION        2.07          1.190        0.000
  YS02001601           JUNCTION        2.26          1.440        0.000
  YS02001602           JUNCTION        2.19          1.270        0.000
  YS02001605           JUNCTION        2.16          1.180        0.000
  YS02001607           JUNCTION        1.69          0.575        0.105
  YS02001610           JUNCTION        1.75          0.622        0.058
  YS02001613           JUNCTION        1.68          0.567        0.133
  YS02001616           JUNCTION        1.60          0.497        0.113
  YS02001619           JUNCTION        1.58          0.487        0.123
  YS02001622           JUNCTION        1.57          0.445        0.175
  YS02001625           JUNCTION        1.95          0.667        0.113
  YS02001629           JUNCTION        1.42          0.263        0.207
  YS02001633           JUNCTION        1.95          0.625        0.435
  YS02001641           JUNCTION        1.73          0.360        0.740
  YS02001644           JUNCTION        1.62          0.267        0.653
  YS02001649           JUNCTION        0.02          0.033        1.017
  YS02001783           JUNCTION        1.41          0.401        1.199
  YS02001784           JUNCTION        1.26          0.293        1.197
  YS02001786           JUNCTION        0.34          0.063        1.367
  YS02001882           JUNCTION        0.76          0.567        0.263
  YS02001884           JUNCTION        0.89          0.610        0.260
  YS02001887           JUNCTION        1.37          0.692        0.258
  YS02001890           JUNCTION        1.42          0.721        0.039
  YS02001895           JUNCTION        0.68          0.525        0.225
  YS02001898           JUNCTION        0.65          0.504        0.236
  YS02001901           JUNCTION        1.20          0.654        0.216
  YS02001904           JUNCTION        1.06          0.636        0.214
  YS02001907           JUNCTION        1.90          0.950        0.000
  YS02001910           JUNCTION        1.52          0.775        0.325
  YS02001915           JUNCTION        0.78          0.587        0.413
  YS02001918           JUNCTION        0.26          0.238        0.572
  YS02001920           JUNCTION        0.33          0.309        0.831
  YS02006553           JUNCTION        1.94          0.960        0.230
  YS02006556           JUNCTION        1.70          0.860        0.490
  YS02006558           JUNCTION        1.68          0.828        0.572
  YS02006561           JUNCTION        0.10          0.058        1.092
  YS02163301           JUNCTION        1.94          0.634        0.396
  YS02163601           JUNCTION        1.97          0.549        0.531
  YS02164001           JUNCTION        1.76          0.402        0.698
  YSB1154              JUNCTION        2.00          1.196        0.204
  YSB1171              JUNCTION        2.00          1.100        0.000
  YSB1174              JUNCTION        1.88          1.078        0.172
  YSB6556              JUNCTION        1.79          1.056        0.044
  
  
  *********************
  Node Flooding Summary
  *********************
  
  Flooding refers to all water that overflows a node, whether it ponds or not.
  --------------------------------------------------------------------------
                                                             Total   Maximum
                                 Maximum   Time of Max       Flood    Ponded
                        Hours       Rate    Occurrence      Volume     Depth
  Node                 Flooded       LPS   days hr:min    10^6 ltr    Meters
  --------------------------------------------------------------------------
  HS02004770              0.14    111.96      0  01:37       0.006     0.000
  HS02004777              0.01     45.25      0  01:37       0.000     0.000
  HS02004785              0.01     63.30      0  01:37       0.000     0.000
  HS02004788              0.01     42.30      0  01:37       0.000     0.000
  HS02004792              0.07     84.10      0  01:41       0.002     0.000
  HS02004799              0.01     12.95      0  01:41       0.000     0.000
  HS02004901              0.53    365.94      0  02:21       0.385     0.000
  WS02004401              0.01     11.86      0  01:11       0.000     0.000
  WS02004402              0.01     18.64      0  01:22       0.000     0.000
  WS02006109              0.39     73.04      0  02:21       0.052     0.000
  WS02006110              0.01     29.15      0  01:11       0.000     0.000
  WS02006112              0.01    261.00      0  01:11       0.002     0.000
  WS02006228              0.01      0.42      0  01:22       0.000     0.000
  WS02006230              1.73    465.99      0  02:21       1.752     0.000
  WS02006231              0.01    107.60      0  01:09       0.000     0.000
  WS02006232              0.44     11.59      0  01:22       0.001     0.000
  WS02006234              1.79    128.14      0  02:32       0.373     0.000
  WS02006235              0.01     51.95      0  01:10       0.000     0.000
  WS02006239              0.01    340.50      0  01:10       0.001     0.000
  WS02006240              0.01    748.77      0  01:10       0.002     0.000
  WS02006242              1.91    745.35      0  01:10       0.825     0.000
  WS02006243              0.01    655.60      0  01:11       0.003     0.000
  WS02006245              0.01    330.64      0  01:11       0.001     0.000
  WS02006247              0.01    541.55      0  01:11       0.003     0.000
  WS02006248              2.03    752.43      0  01:11       2.445     0.000
  WS02006249              2.07   1237.05      0  02:16       6.911     0.000
  WS02006251              0.01    723.04      0  01:33       0.016     0.000
  WS02006252              1.00   1989.20      0  03:04       2.901     0.000
  WS02006253              0.01    627.82      0  01:11       0.003     0.000
  WS02006256              0.37   1498.22      0  03:07       1.597     0.000
  YS02001580              0.01     68.74      0  01:35       0.000     0.000
  YS02001583              0.01     13.70      0  01:35       0.000     0.000
  YS02001586              0.36     55.01      0  01:35       0.024     0.000
  YS02001590              0.01      6.69      0  01:22       0.000     0.000
  YS02001600              0.01      5.78      0  01:22       0.000     0.000
  YS02001601              1.57    416.62      0  02:21       1.503     0.000
  YS02001602              0.18     21.45      0  02:22       0.006     0.000
  YS02001605              0.01     18.78      0  01:22       0.000     0.000
  YS02001907              0.05     33.69      0  02:23       0.003     0.000
  YSB1171                 0.01     29.13      0  01:41       0.000     0.000
  
  
  **********************
  Storage Volume Summary
  **********************
  
  --------------------------------------------------------------------------------------------------
                         Average     Avg  Evap Exfil       Maximum     Max    Time of Max    Maximum
                          Volume    Pcnt  Pcnt  Pcnt        Volume    Pcnt     Occurrence    Outflow
  Storage Unit           1000 m3    Full  Loss  Loss       1000 m3    Full    days hr:min        LPS
  --------------------------------------------------------------------------------------------------
  CC-storage               1.436      22     0     0         2.229      35       0  00:00    8830.00
  JK-storage               0.060      21     0     0         0.212      73       0  01:15   11500.00
  XR-storage               0.941      65     0     0         1.111      77       0  08:00     380.00
  
  
  ***********************
  Outfall Loading Summary
  ***********************
  
  -----------------------------------------------------------
                         Flow       Avg       Max       Total
                         Freq      Flow      Flow      Volume
  Outfall Node           Pcnt       LPS       LPS    10^6 ltr
  -----------------------------------------------------------
  CC-1                  12.11   3362.80   3415.00       8.127
  CC-2                  10.06   3352.17   3415.00       6.307
  JK-1                   2.84   4542.17   5000.00       2.430
  JK-2                   3.30   4781.82   5000.00       2.984
  WSC                   99.95    803.87   1442.17      16.610
  -----------------------------------------------------------
  System                25.65  16842.82   1442.17      36.458
  
  
  ********************
  Link Flow Summary
  ********************
  
  -----------------------------------------------------------------------------
                                 Maximum  Time of Max   Maximum    Max/    Max/
                                  |Flow|   Occurrence   |Veloc|    Full    Full
  Link                 Type          LPS  days hr:min     m/sec    Flow   Depth
  -----------------------------------------------------------------------------
  1                    CONDUIT   1442.17     0  02:24      3.66    0.50    0.50
  HS02004478WS02006287 CONDUIT   2088.71     0  02:21      2.91    0.58    1.00
  HS02004479HS02004480 CONDUIT    313.29     0  01:41      0.65    0.30    1.00
  HS02004480HS02004478 CONDUIT   2018.96     0  01:38      2.88    8.50    1.00
  HS02004770HS02004777 CONDUIT    721.61     0  01:37      1.03    1.32    1.00
  HS02004777HS02004785 CONDUIT    729.48     0  01:37      1.09    0.90    1.00
  HS02004785HS02004788 CONDUIT    664.48     0  02:08      1.39    5.01    1.00
  HS02004788HS02004792 CONDUIT    863.67     0  02:09      1.50    0.57    1.00
  HS02004792HS02004799 CONDUIT   1583.43     0  01:38      2.26    0.97    1.00
  HS02004799HS02004480 CONDUIT   1719.54     0  01:38      2.46    2.17    1.00
  HS02004802HS02004478 CONDUIT    407.95     0  03:05      0.76    0.36    1.00
  HS02004807HS02004802 CONDUIT    372.98     0  03:06      0.65    0.71    1.00
  HS02004817HS02004807 CONDUIT    323.76     0  01:38      0.46    0.19    1.00
  HS02004817HS02004824 CONDUIT    324.93     0  01:38      0.56    0.15    1.00
  HS02004824HS02004830 CONDUIT    565.18     0  01:38      0.83    0.74    1.00
  HS02004830HS02004837 CONDUIT    568.56     0  01:38      0.89    0.57    1.00
  HS02004837HS02004842 CONDUIT    710.47     0  01:39      1.01    0.42    1.00
  HS02004842HS02004848 CONDUIT    710.16     0  01:39      1.11    0.41    1.00
  HS02004848HS02004852 CONDUIT    909.20     0  01:39      1.52    1.02    1.00
  HS02004852HS02004856 CONDUIT    900.28     0  01:40      1.42    1.03    1.00
  HS02004856HS02004862 CONDUIT    948.76     0  01:40      1.63    0.95    1.00
  HS02004862HS02004870 CONDUIT   1029.22     0  01:40      1.72    1.11    1.00
  HS02004870HS02004876 CONDUIT   1058.01     0  01:41      1.73    0.70    1.00
  HS02004876HS02004881 CONDUIT   1157.38     0  01:41      2.86   12.31    1.00
  HS02004881HS02006253 CONDUIT   1212.11     0  01:41      2.94    0.24    1.00
  HS02004901HS02004770 CONDUIT    225.87     0  02:21      0.32    0.85    1.00
  WS02001211WS02001212 CONDUIT    303.07     0  01:20      0.54    0.23    0.69
  WS02001212WS02001213 CONDUIT    312.60     0  01:19      1.04    0.48    0.58
  WS02001213WS02003059 CONDUIT    288.21     0  01:19      0.47    0.48    0.89
  WS02003059WS02003060 CONDUIT    367.93     0  01:15      0.68    0.24    0.79
  WS02003060WS02003069 CONDUIT   1440.22     0  02:22      2.26    0.56    0.59
  WS02003066WSF200     CONDUIT   1229.67     0  01:41      3.60    0.21    0.38
  WS02003067WS02003066 CONDUIT   1229.69     0  01:41      1.94    0.39    0.55
  WS02003069WS02003072 CONDUIT   1440.44     0  02:23      1.87    0.69    0.65
  WS02003072WS02003073 CONDUIT   1440.40     0  02:23      2.02    3.11    0.60
  WS02004138WS02004139 CONDUIT    190.90     0  00:29      2.16    0.04    0.42
  WS02004139WS02001211 CONDUIT    359.24     0  01:18      0.54    0.45    0.60
  WS02004401WS02004402 CONDUIT   1230.03     0  01:40      1.57    1.48    1.00
  WS02004402WS02004403 CONDUIT   1230.82     0  01:11      1.57    1.77    1.00
  WS02004403WS02004404 CONDUIT   1232.91     0  01:11      1.57    0.89    1.00
  WS02004404WS02004405 CONDUIT   1236.33     0  01:11      1.57   12.11    1.00
  WS02004405WS02004406 CONDUIT   1250.15     0  01:11      1.59    2.47    1.00
  WS02004406WS02004407 CONDUIT   1260.68     0  01:11      2.06    0.56    0.90
  WS02004407WS02004409 CONDUIT   1308.59     0  01:12      2.44    0.46    0.90
  WS02004409WS02004410 CONDUIT   1329.90     0  01:12      1.89    1.72    1.00
  WS02004410WS02004411 CONDUIT   1278.99     0  01:13      1.87    1.75    1.00
  WS02004411WS02004412 CONDUIT   1229.80     0  01:42      1.78    1.75    1.00
  WS02004412WS02004413 CONDUIT   1229.81     0  01:41      1.67    0.82    1.00
  WS02004413WS02003067 CONDUIT   1229.82     0  01:41      1.93    0.53    0.76
  WS02006109WS02006110 CONDUIT   1260.78     0  01:11      2.51    2.42    1.00
  WS02006110WS02006113 CONDUIT   1262.21     0  01:11      2.51    1.15    1.00
  WS02006111WS02006112 CONDUIT   1138.41     0  01:11      2.28    0.54    1.00
  WS02006112WS02006115 CONDUIT   1234.38     0  01:11      1.57    0.73    1.00
  WS02006113WS02006111 CONDUIT   1264.99     0  01:11      2.77    1.52    1.00
  WS02006115WS02006116 CONDUIT   1230.08     0  01:40      1.57    1.58    1.00
  WS02006116WS02004401 CONDUIT   1229.85     0  01:40      1.57    1.70    1.00
  WS02006228WS02006109 CONDUIT   1257.72     0  01:11      2.50    5.50    1.00
  WS02006229WS02006228 CONDUIT   1255.86     0  01:11      2.50    4.16    1.00
  WS02006230WS02006229 CONDUIT    908.35     0  02:21      2.36   20.21    1.00
  WS02006231WS02006230 CONDUIT    642.78     0  01:09      1.67    9.75    1.00
  WS02006232WS02006231 CONDUIT    621.65     0  01:09      1.62    1.30    1.00
  WS02006234WS02006232 CONDUIT    621.86     0  01:09      1.90    1.26    1.00
  WS02006235WS02006234 CONDUIT    598.48     0  01:09      1.58    6.31    1.00
  WS02006238WS02006235 CONDUIT    591.50     0  01:10      1.99    1.32    1.00
  WS02006239WS02006238 CONDUIT    641.74     0  01:10      1.91    2.05    1.00
  WS02006240WS02006239 CONDUIT    616.27     0  01:10      1.74    1.94    1.00
  WS02006242WS02006240 CONDUIT    616.51     0  00:03      1.73    2.45    1.00
  WS02006243WS02006242 CONDUIT    692.80     0  00:03      1.85    1.48    1.00
  WS02006245WS02006243 CONDUIT    716.55     0  00:02      2.00    2.12    1.00
  WS02006247WS02006245 CONDUIT    792.07     0  00:02      2.14    6.28    1.00
  WS02006248WS02006247 CONDUIT    796.08     0  00:02      2.18    1.73    1.00
  WS02006249WS02006248 CONDUIT    862.21     0  00:01      2.25    4.72    1.00
  WS02006251WS02006249 CONDUIT   1297.95     0  02:16      3.37    3.74    1.00
  WS02006252WS02006251 CONDUIT   1153.45     0  03:21    >50.00    4.23    1.00
  WS02006253WS02006251 CONDUIT   1227.38     0  01:41      3.19    3.68    1.00
  WS02006256WS02006235 CONDUIT    288.93     0  00:00      4.23    3.06    1.00
  WS02006280WS02006229 CONDUIT   2088.99     0  02:21      5.26    0.45    1.00
  WS02006284WS02006280 CONDUIT   2089.39     0  02:21      3.31    0.87    1.00
  WS02006287WS02006284 CONDUIT   2088.62     0  02:21      3.10    0.97    1.00
  WSF200WS02003060     CONDUIT   1338.98     0  01:14      3.15    0.30    0.49
  YS02001580YS02001583 CONDUIT     78.18     0  01:35      0.56    0.30    1.00
  YS02001583YS02001586 CONDUIT    110.69     0  01:35      0.46    0.17    1.00
  YS02001586YS02001590 CONDUIT    318.19     0  02:28      1.28    0.56    1.00
  YS02001590YS02001593 CONDUIT    318.07     0  02:15      1.12    2.00    1.00
  YS02001593YS02001596 CONDUIT    317.99     0  02:21      1.76    0.50    1.00
  YS02001596YS02001600 CONDUIT    318.23     0  02:28      1.26    0.62    1.00
  YS02001600YS02001601 CONDUIT    318.32     0  02:28      1.13    0.55    1.00
  YS02001601YS02001602 CONDUIT    546.28     0  01:13      1.93    1.97    1.00
  YS02001602YS02001605 CONDUIT    546.26     0  01:13      1.93   11.56    1.00
  YS02001605YS02001607 CONDUIT    546.03     0  01:13      1.93    2.99    1.00
  YS02001607YS02001610 CONDUIT    546.25     0  01:13      0.82    0.52    1.00
  YS02001610YS02001613 CONDUIT    551.07     0  01:13      0.77    0.64    1.00
  YS02001613YS02001616 CONDUIT    559.65     0  01:13      0.83    0.48    1.00
  YS02001616YS02001619 CONDUIT    551.27     0  01:13      0.87    0.96    1.00
  YS02001619YS02001622 CONDUIT    970.35     0  02:19      1.78    1.43    1.00
  YS02001622YS02001625 CONDUIT    970.41     0  02:19      1.24    0.52    1.00
  YS02001625YS02001629 CONDUIT    970.49     0  02:20      1.24    0.46    1.00
  YS02001629YS02163301 CONDUIT    971.44     0  02:20      1.24    1.20    1.00
  YS02001633YS02163601 CONDUIT   1341.60     0  02:20      1.71    1.41    1.00
  YS02001641YS02001644 CONDUIT   1342.61     0  02:21      1.71    4.34    1.00
  YS02001644YS02001647 CONDUIT   1666.70     0  02:21      2.17    0.98    0.96
  YS02001647YS02001649 CONDUIT   1687.49     0  02:22      2.34    0.89    0.96
  YS02001649YS02001757 CONDUIT   1986.54     0  02:21      2.57    1.21    0.99
  YS02001652YS02001649 CONDUIT    325.39     0  02:23      1.36    0.16    0.91
  YS02001655YS02001652 CONDUIT    352.71     0  02:27      1.78    0.17    0.66
  YS02001658YS02001655 CONDUIT    321.92     0  01:41      1.88    0.14    0.40
  YS02001661YS02001658 CONDUIT    322.02     0  01:41      2.16    0.13    0.24
  YS02001664YS02001661 CONDUIT    322.12     0  01:41      1.96    0.10    0.26
  YS02001745YS02001748 CONDUIT    201.48     0  01:40      1.96    0.08    0.19
  YS02001748YS02001751 CONDUIT    204.26     0  01:40      1.63    0.10    0.27
  YS02001751YS02001754 CONDUIT    267.93     0  02:32      1.62    0.13    0.46
  YS02001754YS02001757 CONDUIT    359.39     0  02:32      1.07    0.14    0.80
  YS02001757CaochengTiaoxuchi CONDUIT   2784.88     0  02:23      4.64    1.21    0.84
  YS02001759YS02001757 CONDUIT    679.37     0  01:42      1.32    0.48    0.93
  YS02001762YS02001759 CONDUIT    440.62     0  02:24      0.75    0.51    0.86
  YS02001765YS02001762 CONDUIT    421.56     0  02:24      0.86    0.40    0.83
  YS02001767YS02001765 CONDUIT    425.76     0  02:17      0.95    0.54    0.79
  YS02001770YS02001767 CONDUIT    433.43     0  02:24      0.92    1.72    0.79
  YS02001774YS02001770 CONDUIT     77.47     0  01:05      0.73    0.05    0.83
  YS02001779YS02001774 CONDUIT     64.62     0  02:22      0.21    0.03    0.75
  YS02001783YS02001784 CONDUIT   1138.78     0  02:22      2.27    1.57    1.00
  YS02001784YS02001785 CONDUIT   1139.37     0  02:22      2.27    2.65    1.00
  YS02001786YS02001788 CONDUIT   1139.55     0  02:22      2.44    2.20    0.88
  YS02001788YS02001790 CONDUIT   1148.81     0  02:24      2.69    0.85    0.83
  YS02001790YS02001791 CONDUIT   1262.83     0  02:23      3.40    1.37    0.70
  YS02001791YS02001793 CONDUIT   1216.78     0  02:23      6.75    0.52    0.40
  YS02001793JiankangQianchi CONDUIT   1218.31     0  02:23      2.68    0.10    0.61
  YS02001882YS02001884 CONDUIT     69.09     0  01:11      0.42    0.08    1.00
  YS02001884YS02001887 CONDUIT    124.24     0  01:11      0.37    0.17    1.00
  YS02001887YS02001890 CONDUIT    316.08     0  01:39      0.45    0.54    1.00
  YS02001890YS02001895 CONDUIT    318.22     0  01:39      0.47    0.15    1.00
  YS02001895YS02001898 CONDUIT    308.67     0  01:40      0.70    0.54    1.00
  YS02001898YS02001901 CONDUIT    310.64     0  01:40      0.60    0.20    1.00
  YS02001901YS02001904 CONDUIT    311.67     0  01:40      0.64    0.48    1.00
  YS02001904YS02001907 CONDUIT    314.33     0  01:40      0.40    0.11    1.00
  YS02001907YS02006553 CONDUIT    777.82     0  02:26      0.86    0.91    1.00
  YS02001910YS02001907 CONDUIT    559.38     0  02:28      0.71    0.32    1.00
  YS02001915YS02001910 CONDUIT    560.00     0  02:28      1.14    0.28    1.00
  YS02001918YS02001915 CONDUIT    256.16     0  02:32      0.48    0.14    1.00
  YS02001920YS02001918 CONDUIT    246.83     0  01:49      0.70    0.24    1.00
  YS02001923YS02001920 CONDUIT    241.70     0  02:28      0.79    0.11    1.00
  YS02001926YS02001923 CONDUIT    228.28     0  01:46      0.95    0.33    0.85
  YS02001929YS02001926 CONDUIT    204.01     0  02:23      1.06    0.10    0.74
  YS02006553YS02006556 CONDUIT    778.17     0  02:24      0.99    0.67    1.00
  YS02006556YS02006558 CONDUIT    779.19     0  02:26      0.99    0.62    1.00
  YS02006558YS02006561 CONDUIT   1139.08     0  02:22      4.03    2.52    1.00
  YS02006561YS02001783 CONDUIT   1138.87     0  02:22      2.27    0.59    1.00
  YS02163301YS02001633 CONDUIT    971.13     0  02:20      1.24    0.91    1.00
  YS02163601YS02164001 CONDUIT   1341.85     0  02:20      1.71    1.19    1.00
  YS02164001YS02001641 CONDUIT   1343.25     0  02:21      1.71    1.83    1.00
  YSB1154YSB6556       CONDUIT    167.35     0  01:40      0.43    0.30    1.00
  YSB1171HS02004479    CONDUIT    309.25     0  01:41      0.62    0.21    1.00
  YSB1174YSB1171       CONDUIT    139.96     0  01:40      0.36    0.21    1.00
  YSB6556YSB1171       CONDUIT    169.92     0  01:41      0.44    0.17    1.00
  CC-R1                PUMP      3415.00     0  00:01              5.00
  CC-R2                PUMP      3415.00     0  01:21              5.00
  CC-S1                PUMP      1000.00     0  00:01              5.00
  CC-S2                PUMP      1000.00     0  01:11              5.00
  JK-R1                PUMP      5000.00     0  01:16              5.00
  JK-R2                PUMP      5000.00     0  01:16              5.00
  JK-S                 PUMP      1500.00     0  00:06              5.00
  XR-1                 PUMP        95.00     0  00:00              1.00
  XR-2                 PUMP        95.00     0  00:00              1.00
  XR-3                 PUMP        95.00     0  00:00              1.00
  XR-4                 PUMP        95.00     0  00:00              1.00
  
  
  ***************************
  Flow Classification Summary
  ***************************
  
  -------------------------------------------------------------------------------------
                      Adjusted    ---------- Fraction of Time in Flow Class ---------- 
                       /Actual         Up    Down  Sub   Sup   Up    Down  Norm  Inlet 
  Conduit               Length    Dry  Dry   Dry   Crit  Crit  Crit  Crit  Ltd   Ctrl  
  -------------------------------------------------------------------------------------
  1                       1.00   0.00  0.00  0.00  0.00  1.00  0.00  0.00  0.39  0.00
  HS02004478WS02006287    1.00   0.08  0.00  0.00  0.70  0.22  0.00  0.00  0.55  0.00
  HS02004479HS02004480    1.00   0.04  0.00  0.00  0.96  0.00  0.00  0.00  0.09  0.00
  HS02004480HS02004478    1.00   0.08  0.00  0.00  0.67  0.00  0.00  0.25  0.00  0.00
  HS02004770HS02004777    1.00   0.00  0.08  0.00  0.92  0.00  0.00  0.00  0.00  0.00
  HS02004777HS02004785    1.00   0.00  0.00  0.00  1.00  0.00  0.00  0.00  0.09  0.00
  HS02004785HS02004788    1.00   0.00  0.00  0.00  1.00  0.00  0.00  0.00  0.00  0.00
  HS02004788HS02004792    1.00   0.00  0.00  0.00  0.99  0.01  0.00  0.00  0.77  0.00
  HS02004792HS02004799    1.00   0.00  0.00  0.00  0.99  0.01  0.00  0.00  0.73  0.00
  HS02004799HS02004480    1.00   0.00  0.03  0.00  0.92  0.00  0.04  0.00  0.00  0.00
  HS02004802HS02004478    1.00   0.08  0.00  0.00  0.92  0.00  0.00  0.00  0.00  0.00
  HS02004807HS02004802    1.00   0.08  0.00  0.00  0.92  0.00  0.00  0.00  0.00  0.00
  HS02004817HS02004807    1.00   0.00  0.08  0.00  0.92  0.00  0.00  0.00  0.01  0.00
  HS02004817HS02004824    1.00   0.00  0.00  0.00  1.00  0.00  0.00  0.00  0.73  0.00
  HS02004824HS02004830    1.00   0.00  0.00  0.00  1.00  0.00  0.00  0.00  0.00  0.00
  HS02004830HS02004837    1.00   0.00  0.00  0.00  1.00  0.00  0.00  0.00  0.73  0.00
  HS02004837HS02004842    1.00   0.00  0.00  0.00  1.00  0.00  0.00  0.00  0.11  0.00
  HS02004842HS02004848    1.00   0.00  0.08  0.00  0.92  0.00  0.00  0.00  0.50  0.00
  HS02004848HS02004852    1.00   0.08  0.00  0.00  0.92  0.00  0.00  0.00  0.62  0.00
  HS02004852HS02004856    1.00   0.08  0.00  0.00  0.92  0.00  0.00  0.00  0.60  0.00
  HS02004856HS02004862    1.00   0.00  0.08  0.00  0.92  0.00  0.00  0.00  0.64  0.00
  HS02004862HS02004870    1.00   0.00  0.00  0.00  1.00  0.00  0.00  0.00  0.01  0.00
  HS02004870HS02004876    1.00   0.00  0.00  0.00  0.99  0.00  0.00  0.00  0.77  0.00
  HS02004876HS02004881    1.00   0.00  0.00  0.00  0.84  0.15  0.00  0.00  0.00  0.00
  HS02004881HS02006253    1.00   0.00  0.00  0.00  0.51  0.04  0.00  0.45  0.08  0.00
  HS02004901HS02004770    1.00   0.08  0.00  0.00  0.92  0.00  0.00  0.00  0.00  0.00
  WS02001211WS02001212    1.00   0.00  0.03  0.00  0.97  0.00  0.00  0.00  0.00  0.00
  WS02001212WS02001213    1.00   0.03  0.00  0.00  0.56  0.00  0.41  0.00  0.00  0.00
  WS02001213WS02003059    1.00   0.00  0.00  0.00  0.99  0.00  0.00  0.00  0.00  0.00
  WS02003059WS02003060    1.00   0.00  0.00  0.00  1.00  0.00  0.00  0.00  0.03  0.00
  WS02003060WS02003069    1.00   0.00  0.00  0.00  0.99  0.01  0.00  0.00  0.46  0.00
  WS02003066WSF200        1.00   0.06  0.00  0.00  0.00  0.94  0.00  0.00  0.61  0.00
  WS02003067WS02003066    1.00   0.05  0.00  0.00  0.94  0.00  0.00  0.00  0.00  0.00
  WS02003069WS02003072    1.00   0.00  0.00  0.00  1.00  0.00  0.00  0.00  0.62  0.00
  WS02003072WS02003073    1.00   0.00  0.00  0.00  0.00  0.00  0.00  1.00  0.00  0.00
  WS02004138WS02004139    1.00   0.00  0.00  0.00  0.97  0.01  0.00  0.02  0.98  0.00
  WS02004139WS02001211    1.00   0.00  0.00  0.00  0.99  0.00  0.00  0.00  0.00  0.00
  WS02004401WS02004402    1.00   0.02  0.00  0.00  0.98  0.00  0.00  0.00  0.00  0.00
  WS02004402WS02004403    1.00   0.03  0.00  0.00  0.97  0.00  0.00  0.00  0.00  0.00
  WS02004403WS02004404    1.00   0.00  0.03  0.00  0.97  0.00  0.00  0.00  0.00  0.00
  WS02004404WS02004405    1.00   0.00  0.00  0.00  1.00  0.00  0.00  0.00  0.00  0.00
  WS02004405WS02004406    1.00   0.00  0.00  0.00  1.00  0.00  0.00  0.00  0.00  0.00
  WS02004406WS02004407    1.00   0.00  0.04  0.00  0.96  0.00  0.00  0.00  0.00  0.00
  WS02004407WS02004409    1.00   0.04  0.00  0.00  0.95  0.01  0.00  0.00  0.71  0.00
  WS02004409WS02004410    1.00   0.04  0.00  0.00  0.96  0.00  0.00  0.00  0.01  0.00
  WS02004410WS02004411    1.00   0.04  0.00  0.00  0.96  0.00  0.00  0.00  0.00  0.00
  WS02004411WS02004412    1.00   0.04  0.00  0.00  0.96  0.00  0.00  0.00  0.00  0.00
  WS02004412WS02004413    1.00   0.04  0.00  0.00  0.96  0.00  0.00  0.00  0.01  0.00
  WS02004413WS02003067    1.00   0.04  0.01  0.00  0.00  0.00  0.95  0.00  0.00  0.00
  WS02006109WS02006110    1.00   0.00  0.01  0.00  0.98  0.00  0.01  0.00  0.00  0.00
  WS02006110WS02006113    1.00   0.01  0.01  0.00  0.98  0.00  0.00  0.00  0.00  0.00
  WS02006111WS02006112    1.00   0.02  0.00  0.00  0.98  0.00  0.00  0.00  0.69  0.00
  WS02006112WS02006115    1.00   0.02  0.00  0.00  0.97  0.00  0.00  0.00  0.00  0.00
  WS02006113WS02006111    1.00   0.02  0.00  0.00  0.45  0.53  0.00  0.00  0.06  0.00
  WS02006115WS02006116    1.00   0.02  0.00  0.00  0.97  0.00  0.00  0.01  0.00  0.00
  WS02006116WS02004401    1.00   0.02  0.00  0.00  0.98  0.00  0.00  0.00  0.00  0.00
  WS02006228WS02006109    1.00   0.00  0.00  0.00  0.99  0.00  0.00  0.01  0.00  0.00
  WS02006229WS02006228    1.00   0.00  0.00  0.00  0.99  0.00  0.00  0.01  0.00  0.00
  WS02006230WS02006229    1.00   0.00  0.00  0.00  0.99  0.00  0.00  0.01  0.03  0.00
  WS02006231WS02006230    1.00   0.00  0.00  0.00  0.57  0.00  0.42  0.00  0.00  0.00
  WS02006232WS02006231    1.00   0.00  0.00  0.00  0.99  0.00  0.00  0.00  0.00  0.00
  WS02006234WS02006232    1.00   0.00  0.00  0.00  1.00  0.00  0.00  0.00  0.04  0.00
  WS02006235WS02006234    1.00   0.00  0.00  0.00  0.91  0.00  0.09  0.00  0.00  0.00
  WS02006238WS02006235    1.00   0.00  0.00  0.00  1.00  0.00  0.00  0.00  0.00  0.00
  WS02006239WS02006238    1.00   0.00  0.00  0.00  1.00  0.00  0.00  0.00  0.20  0.00
  WS02006240WS02006239    1.00   0.00  0.00  0.00  0.76  0.00  0.00  0.24  0.02  0.00
  WS02006242WS02006240    1.00   0.00  0.00  0.00  0.99  0.00  0.01  0.00  0.00  0.00
  WS02006243WS02006242    1.00   0.00  0.00  0.00  0.99  0.00  0.00  0.01  0.62  0.00
  WS02006245WS02006243    1.00   0.00  0.00  0.00  0.95  0.00  0.00  0.05  0.00  0.00
  WS02006247WS02006245    1.00   0.00  0.00  0.00  0.98  0.00  0.00  0.02  0.00  0.00
  WS02006248WS02006247    1.00   0.00  0.00  0.00  0.99  0.00  0.00  0.01  0.58  0.00
  WS02006249WS02006248    1.00   0.00  0.00  0.00  0.66  0.00  0.34  0.00  0.00  0.00
  WS02006251WS02006249    1.00   0.00  0.00  0.00  1.00  0.00  0.00  0.00  0.58  0.00
  WS02006252WS02006251    1.00   0.31  0.18  0.00  0.43  0.02  0.05  0.00  0.00  0.00
  WS02006253WS02006251    1.00   0.00  0.00  0.00  1.00  0.00  0.00  0.00  0.00  0.00
  WS02006256WS02006235    1.00   0.00  0.00  0.00  0.99  0.01  0.00  0.00  0.00  0.00
  WS02006280WS02006229    1.00   0.08  0.00  0.00  0.41  0.03  0.00  0.48  0.00  0.00
  WS02006284WS02006280    1.00   0.08  0.00  0.00  0.38  0.03  0.00  0.51  0.00  0.00
  WS02006287WS02006284    1.00   0.07  0.01  0.00  0.63  0.28  0.00  0.01  0.61  0.00
  WSF200WS02003060        1.00   0.00  0.06  0.00  0.41  0.53  0.00  0.00  0.58  0.00
  YS02001580YS02001583    1.00   0.10  0.34  0.00  0.56  0.00  0.00  0.00  0.62  0.00
  YS02001583YS02001586    1.00   0.22  0.17  0.00  0.60  0.00  0.01  0.00  0.63  0.00
  YS02001586YS02001590    1.00   0.08  0.00  0.00  0.70  0.02  0.00  0.20  0.27  0.00
  YS02001590YS02001593    1.00   0.08  0.00  0.00  0.42  0.00  0.50  0.00  0.00  0.00
  YS02001593YS02001596    1.00   0.08  0.00  0.00  0.43  0.01  0.00  0.48  0.01  0.00
  YS02001596YS02001600    1.00   0.08  0.00  0.00  0.49  0.02  0.00  0.41  0.02  0.00
  YS02001600YS02001601    1.00   0.08  0.00  0.00  0.92  0.00  0.00  0.00  0.54  0.00
  YS02001601YS02001602    1.00   0.08  0.00  0.00  0.92  0.00  0.00  0.00  0.00  0.00
  YS02001602YS02001605    1.00   0.08  0.00  0.00  0.92  0.00  0.00  0.00  0.00  0.00
  YS02001605YS02001607    1.00   0.08  0.00  0.00  0.92  0.00  0.00  0.00  0.00  0.00
  YS02001607YS02001610    1.00   0.08  0.00  0.00  0.92  0.00  0.00  0.00  0.00  0.00
  YS02001610YS02001613    1.00   0.08  0.00  0.00  0.92  0.00  0.00  0.00  0.00  0.00
  YS02001613YS02001616    1.00   0.08  0.00  0.00  0.92  0.00  0.00  0.00  0.00  0.00
  YS02001616YS02001619    1.00   0.08  0.00  0.00  0.92  0.00  0.00  0.00  0.00  0.00
  YS02001619YS02001622    1.00   0.08  0.00  0.00  0.92  0.01  0.00  0.00  0.26  0.00
  YS02001622YS02001625    1.00   0.08  0.00  0.00  0.92  0.00  0.00  0.00  0.01  0.00
  YS02001625YS02001629    1.00   0.08  0.01  0.00  0.44  0.00  0.47  0.00  0.00  0.00
  YS02001629YS02163301    1.00   0.08  0.00  0.00  0.92  0.00  0.00  0.00  0.00  0.00
  YS02001633YS02163601    1.00   0.00  0.01  0.00  0.99  0.00  0.00  0.00  0.12  0.00
  YS02001641YS02001644    1.00   0.00  0.00  0.00  1.00  0.00  0.00  0.00  0.00  0.00
  YS02001644YS02001647    1.00   0.00  0.08  0.00  0.92  0.00  0.00  0.00  0.00  0.00
  YS02001647YS02001649    1.00   0.00  0.08  0.00  0.60  0.32  0.00  0.00  0.53  0.00
  YS02001649YS02001757    1.00   0.00  0.00  0.00  0.61  0.39  0.00  0.00  0.45  0.00
  YS02001652YS02001649    1.00   0.00  0.00  0.00  0.99  0.01  0.00  0.00  0.67  0.00
  YS02001655YS02001652    1.00   0.00  0.00  0.00  0.49  0.01  0.00  0.50  0.08  0.00
  YS02001658YS02001655    1.00   0.00  0.08  0.00  0.60  0.32  0.00  0.00  0.81  0.00
  YS02001661YS02001658    1.00   0.08  0.00  0.00  0.23  0.70  0.00  0.00  0.78  0.00
  YS02001664YS02001661    1.00   0.08  0.00  0.00  0.49  0.43  0.00  0.00  0.87  0.00
  YS02001745YS02001748    1.00   0.00  0.00  0.00  0.00  0.00  0.00  1.00  0.00  0.00
  YS02001748YS02001751    1.00   0.00  0.00  0.00  0.56  0.44  0.00  0.00  0.83  0.00
  YS02001751YS02001754    1.00   0.00  0.00  0.00  0.41  0.01  0.00  0.58  0.11  0.00
  YS02001754YS02001757    1.00   0.00  0.00  0.00  1.00  0.00  0.00  0.00  0.73  0.00
  YS02001757CaochengTiaoxuchi    1.00   0.00  0.00  0.00  0.53  0.47  0.00  0.00  0.90  0.00
  YS02001759YS02001757    1.00   0.00  0.00  0.00  1.00  0.00  0.00  0.00  0.57  0.00
  YS02001762YS02001759    1.00   0.00  0.00  0.00  1.00  0.00  0.00  0.00  0.02  0.00
  YS02001765YS02001762    1.00   0.00  0.00  0.00  1.00  0.00  0.00  0.00  0.67  0.00
  YS02001767YS02001765    1.00   0.00  0.00  0.00  1.00  0.00  0.00  0.00  0.00  0.00
  YS02001770YS02001767    1.00   0.00  0.00  0.00  1.00  0.00  0.00  0.00  0.00  0.00
  YS02001774YS02001770    1.00   0.00  0.07  0.00  0.84  0.00  0.08  0.00  0.00  0.00
  YS02001779YS02001774    1.00   0.00  0.00  0.00  1.00  0.00  0.00  0.00  0.71  0.00
  YS02001783YS02001784    1.00   0.00  0.08  0.00  0.92  0.00  0.00  0.00  0.53  0.00
  YS02001784YS02001785    1.00   0.00  0.00  0.00  1.00  0.00  0.00  0.00  0.12  0.00
  YS02001786YS02001788    1.00   0.00  0.00  0.00  0.65  0.35  0.00  0.00  0.00  0.00
  YS02001788YS02001790    1.00   0.00  0.00  0.00  0.12  0.88  0.00  0.00  0.73  0.00
  YS02001790YS02001791    1.00   0.00  0.00  0.00  0.02  0.98  0.00  0.00  0.13  0.00
  YS02001791YS02001793    1.00   0.00  0.00  0.00  0.00  1.00  0.00  0.00  0.00  0.00
  YS02001793JiankangQianchi    1.00   0.00  0.00  0.00  0.96  0.04  0.00  0.00  1.00  0.00
  YS02001882YS02001884    1.00   0.08  0.00  0.00  0.92  0.00  0.00  0.00  0.00  0.00
  YS02001884YS02001887    1.00   0.05  0.02  0.00  0.93  0.00  0.00  0.00  0.00  0.00
  YS02001887YS02001890    1.00   0.00  0.00  0.00  0.97  0.00  0.03  0.00  0.00  0.00
  YS02001890YS02001895    1.00   0.00  0.08  0.00  0.92  0.00  0.00  0.00  0.00  0.00
  YS02001895YS02001898    1.00   0.08  0.00  0.00  0.92  0.00  0.01  0.00  0.00  0.00
  YS02001898YS02001901    1.00   0.08  0.00  0.00  0.92  0.00  0.00  0.00  0.00  0.00
  YS02001901YS02001904    1.00   0.08  0.00  0.00  0.92  0.00  0.00  0.00  0.00  0.00
  YS02001904YS02001907    1.00   0.00  0.08  0.00  0.92  0.00  0.00  0.00  0.00  0.00
  YS02001907YS02006553    1.00   0.00  0.02  0.00  0.97  0.00  0.00  0.00  0.00  0.00
  YS02001910YS02001907    1.00   0.00  0.00  0.00  0.97  0.00  0.00  0.03  0.10  0.00
  YS02001915YS02001910    1.00   0.00  0.00  0.00  0.98  0.02  0.00  0.00  0.11  0.00
  YS02001918YS02001915    1.00   0.00  0.00  0.00  0.98  0.02  0.00  0.00  0.62  0.00
  YS02001920YS02001918    1.00   0.00  0.00  0.00  1.00  0.00  0.00  0.00  0.00  0.00
  YS02001923YS02001920    1.00   0.00  0.00  0.00  1.00  0.00  0.00  0.00  0.80  0.00
  YS02001926YS02001923    1.00   0.00  0.05  0.00  0.16  0.00  0.79  0.00  0.00  0.00
  YS02001929YS02001926    1.00   0.00  0.08  0.00  0.92  0.00  0.00  0.00  0.81  0.00
  YS02006553YS02006556    1.00   0.01  0.00  0.00  0.99  0.00  0.00  0.00  0.03  0.00
  YS02006556YS02006558    1.00   0.00  0.00  0.00  1.00  0.00  0.00  0.00  0.00  0.00
  YS02006558YS02006561    1.00   0.08  0.00  0.00  0.09  0.82  0.00  0.00  0.13  0.00
  YS02006561YS02001783    1.00   0.08  0.00  0.00  0.35  0.57  0.00  0.00  0.60  0.00
  YS02163301YS02001633    1.00   0.00  0.08  0.00  0.92  0.00  0.00  0.00  0.00  0.00
  YS02163601YS02164001    1.00   0.00  0.06  0.00  0.94  0.00  0.00  0.00  0.00  0.00
  YS02164001YS02001641    1.00   0.01  0.05  0.00  0.94  0.00  0.00  0.00  0.05  0.00
  YSB1154YSB6556          1.00   0.08  0.00  0.00  0.92  0.00  0.00  0.00  0.00  0.00
  YSB1171HS02004479       1.00   0.04  0.00  0.00  0.96  0.00  0.00  0.01  0.08  0.00
  YSB1174YSB1171          1.00   0.04  0.02  0.00  0.94  0.00  0.00  0.00  0.00  0.00
  YSB6556YSB1171          1.00   0.04  0.04  0.00  0.92  0.00  0.00  0.00  0.00  0.00
  
  
  *************************
  Conduit Surcharge Summary
  *************************
  
  ----------------------------------------------------------------------------
                                                           Hours        Hours 
                         --------- Hours Full --------   Above Full   Capacity
  Conduit                Both Ends  Upstream  Dnstream   Normal Flow   Limited
  ----------------------------------------------------------------------------
  HS02004478WS02006287        1.09      1.09      1.67      0.01         0.01
  HS02004479HS02004480        1.71      1.71      1.75      0.01         0.01
  HS02004480HS02004478        1.57      1.70      1.57      2.30         1.57
  HS02004770HS02004777        1.52      1.52      1.54      1.20         0.94
  HS02004777HS02004785        1.39      1.39      1.54      0.01         0.01
  HS02004785HS02004788        1.39      1.39      1.39      2.16         1.39
  HS02004788HS02004792        1.39      1.39      1.64      0.01         0.01
  HS02004792HS02004799        1.64      1.64      1.82      0.01         0.01
  HS02004799HS02004480        1.70      1.70      1.82      1.92         0.01
  HS02004802HS02004478        1.59      1.59      1.70      0.01         0.01
  HS02004807HS02004802        1.65      1.65      1.69      0.01         0.02
  HS02004817HS02004807        1.65      1.65      2.11      0.01         0.01
  HS02004817HS02004824        1.39      1.39      2.11      0.01         0.01
  HS02004824HS02004830        0.87      0.87      1.39      0.01         0.01
  HS02004830HS02004837        0.61      0.61      0.87      0.01         0.01
  HS02004837HS02004842        0.61      0.61      1.54      0.01         0.01
  HS02004842HS02004848        0.38      0.38      1.54      0.01         0.01
  HS02004848HS02004852        0.38      0.38      0.60      0.02         0.01
  HS02004852HS02004856        0.60      0.60      0.66      0.01         0.01
  HS02004856HS02004862        0.48      0.48      0.66      0.01         0.01
  HS02004862HS02004870        0.62      0.66      0.71      0.03         0.08
  HS02004870HS02004876        0.71      0.71      1.28      0.01         0.01
  HS02004876HS02004881        0.90      1.28      0.90      2.19         0.88
  HS02004881HS02006253        0.90      0.90      1.94      0.01         0.01
  HS02004901HS02004770        1.52      1.52      1.54      0.01         0.07
  WS02003072WS02003073        0.01      0.01      0.01      2.76         0.01
  WS02004401WS02004402        2.18      2.18      2.23      2.12         2.07
  WS02004402WS02004403        2.23      2.23      2.24      2.19         2.17
  WS02004403WS02004404        2.24      2.24      2.33      0.01         0.02
  WS02004404WS02004405        2.32      2.33      2.32      3.27         2.31
  WS02004405WS02004406        2.31      2.32      2.31      2.42         2.30
  WS02004406WS02004407        0.01      0.01      2.31      0.01         0.01
  WS02004407WS02004409        0.01      0.01      1.95      0.01         0.01
  WS02004409WS02004410        1.94      1.95      1.94      2.13         1.94
  WS02004410WS02004411        1.93      1.94      1.93      2.15         1.93
  WS02004411WS02004412        1.77      1.93      1.77      2.17         1.77
  WS02004412WS02004413        1.77      1.77      2.05      0.01         0.01
  WS02004413WS02003067        0.01      0.01      2.05      0.01         0.01
  WS02006109WS02006110        2.40      2.40      2.52      2.41         0.01
  WS02006110WS02006113        2.06      2.06      2.52      1.55         0.01
  WS02006111WS02006112        2.04      2.04      2.66      0.01         0.01
  WS02006112WS02006115        2.12      2.12      2.44      0.01         0.01
  WS02006113WS02006111        2.04      2.06      2.04      2.11         2.04
  WS02006115WS02006116        2.13      2.13      2.14      2.15         2.11
  WS02006116WS02004401        2.17      2.17      2.18      2.18         2.14
  WS02006228WS02006109        2.51      2.52      2.51      2.74         2.51
  WS02006229WS02006228        2.51      2.51      2.51      2.62         2.50
  WS02006230WS02006229        2.54      2.55      2.54      3.64         0.45
  WS02006231WS02006230        2.30      2.31      2.33      2.97         2.07
  WS02006232WS02006231        2.32      2.32      2.40      0.03         0.38
  WS02006234WS02006232        2.32      2.32      2.40      0.02         0.02
  WS02006235WS02006234        2.28      2.28      2.31      2.77         2.02
  WS02006238WS02006235        2.32      2.32      2.35      0.02         0.63
  WS02006239WS02006238        2.31      2.32      2.33      1.93         0.07
  WS02006240WS02006239        2.25      2.26      2.27      1.91         0.05
  WS02006242WS02006240        2.25      2.25      2.35      2.10         1.90
  WS02006243WS02006242        2.24      2.24      2.31      0.03         0.02
  WS02006245WS02006243        2.20      2.22      2.22      0.05         0.06
  WS02006247WS02006245        2.21      2.23      2.21      2.48         0.18
  WS02006248WS02006247        2.20      2.20      2.22      0.04         0.04
  WS02006249WS02006248        2.18      2.18      2.21      0.32         0.02
  WS02006251WS02006249        2.19      2.21      2.21      2.07         1.84
  WS02006252WS02006251        1.91      5.31      2.01      0.82         0.05
  WS02006253WS02006251        2.18      2.21      2.21      1.90         0.15
  WS02006256WS02006235        2.80      2.84      6.62      0.09         0.04
  WS02006280WS02006229        1.82      1.82      1.97      0.01         0.01
  WS02006284WS02006280        1.70      1.70      1.80      0.01         0.01
  WS02006287WS02006284        1.57      1.57      1.72      0.01         0.01
  YS02001580YS02001583        1.44      1.44      1.48      0.01         0.01
  YS02001583YS02001586        1.44      1.44      1.68      0.01         0.01
  YS02001586YS02001590        1.70      1.70      1.84      0.01         0.01
  YS02001590YS02001593        1.84      1.84      1.88      1.87         0.01
  YS02001593YS02001596        1.86      1.86      2.01      0.01         0.01
  YS02001596YS02001600        2.04      2.04      2.07      0.01         0.01
  YS02001600YS02001601        2.11      2.11      2.26      0.01         0.01
  YS02001601YS02001602        2.19      2.19      2.28      2.10         0.01
  YS02001602YS02001605        2.16      2.16      2.19      2.81         0.01
  YS02001605YS02001607        2.14      2.16      2.14      2.23         2.14
  YS02001607YS02001610        1.69      1.69      1.75      0.01         0.01
  YS02001610YS02001613        1.68      1.68      1.75      0.01         0.01
  YS02001613YS02001616        1.60      1.60      1.68      0.01         0.01
  YS02001616YS02001619        1.58      1.58      1.60      0.01         0.01
  YS02001619YS02001622        1.57      1.58      1.57      1.96         1.56
  YS02001622YS02001625        1.57      1.57      1.95      0.01         0.01
  YS02001625YS02001629        1.42      1.42      1.95      0.01         0.01
  YS02001629YS02163301        1.94      1.94      1.94      1.66         1.60
  YS02001633YS02163601        1.95      1.95      1.97      1.72         1.71
  YS02001641YS02001644        1.62      1.73      1.62      2.29         1.62
  YS02001644YS02001647        0.01      0.01      1.62      0.01         0.01
  YS02001647YS02001649        0.01      0.01      0.02      0.01         0.01
  YS02001649YS02001757        0.01      0.02      0.01      1.42         0.01
  YS02001652YS02001649        0.01      0.01      0.02      0.01         0.01
  YS02001757CaochengTiaoxuchi        0.01      0.01      0.01      1.26         0.01
  YS02001770YS02001767        0.01      0.01      0.01      1.56         0.01
  YS02001783YS02001784        1.26      1.41      1.26      1.75         1.26
  YS02001784YS02001785        0.34      1.26      0.34      2.00         0.34
  YS02001786YS02001788        0.01      0.34      0.01      1.96         0.01
  YS02001790YS02001791        0.01      0.01      0.01      1.05         0.01
  YS02001793JiankangQianchi        0.01      0.01      4.02      0.01         0.01
  YS02001882YS02001884        0.76      0.76      0.89      0.01         0.01
  YS02001884YS02001887        1.21      1.21      1.37      0.01         0.01
  YS02001887YS02001890        1.42      1.42      1.46      0.01         0.01
  YS02001890YS02001895        0.68      0.68      1.52      0.01         0.01
  YS02001895YS02001898        0.65      0.65      0.68      0.01         0.01
  YS02001898YS02001901        0.70      0.70      1.20      0.01         0.01
  YS02001901YS02001904        1.06      1.06      1.20      0.01         0.01
  YS02001904YS02001907        1.06      1.06      1.95      0.01         0.01
  YS02001907YS02006553        2.00      2.00      2.03      0.01         0.01
  YS02001910YS02001907        1.52      1.52      1.90      0.01         0.01
  YS02001915YS02001910        0.78      0.78      1.52      0.01         0.01
  YS02001918YS02001915        0.26      0.26      0.78      0.01         0.01
  YS02001920YS02001918        0.26      0.26      0.33      0.01         0.01
  YS02001923YS02001920        0.07      0.07      0.33      0.01         0.01
  YS02006553YS02006556        1.70      1.70      1.94      0.01         0.01
  YS02006556YS02006558        1.81      1.81      1.95      0.01         0.01
  YS02006558YS02006561        0.44      1.68      0.44      1.98         0.44
  YS02006561YS02001783        0.10      0.10      1.41      0.01         0.01
  YS02163301YS02001633        1.94      1.94      1.96      0.01         0.11
  YS02163601YS02164001        1.76      1.76      1.97      1.49         0.01
  YS02164001YS02001641        1.73      1.76      1.73      2.01         1.73
  YSB1154YSB6556              1.79      1.79      2.00      0.01         0.01
  YSB1171HS02004479           1.63      1.63      2.00      0.01         0.01
  YSB1174YSB1171              1.88      1.88      2.07      0.01         0.01
  YSB6556YSB1171              1.79      1.79      2.12      0.01         0.01
  
  
  ***************
  Pumping Summary
  ***************
  
  ---------------------------------------------------------------------------------------------------------
                                                  Min       Avg       Max     Total     Power    % Time Off
                        Percent   Number of      Flow      Flow      Flow    Volume     Usage    Pump Curve
  Pump                 Utilized   Start-Ups       LPS       LPS       LPS  10^6 ltr     Kw-hr    Low   High
  ---------------------------------------------------------------------------------------------------------
  CC-R1                    8.42          89      0.00   3362.80   3415.00     8.118    133.74    0.0  100.0
  CC-R2                    6.58          83      0.00   3352.17   3415.00     6.305    103.40    0.0  100.0
  CC-S1                    8.01          80      0.00    985.26   1000.00     2.259     22.65    0.0    0.0
  CC-S2                    8.09          84      0.00    985.20   1000.00     2.283     22.89    0.0    0.0
  JK-R1                    1.92          65      0.00   4542.17   5000.00     2.436     15.29    0.0    0.0
  JK-R2                    2.21          85      0.00   4781.82   5000.00     2.990     18.17    0.0    0.0
  JK-S                     4.59          99      0.00   1416.67   1500.00     1.840     36.23    0.0    0.0
  XR-1                    97.91           2      0.00     95.00     95.00     2.679      9.61    0.0    0.0
  XR-2                    93.94           2      0.00     95.00     95.00     2.570      8.77    0.0    0.0
  XR-3                     0.00           1      0.00     95.00     95.00     0.000      0.00    0.0    0.0
  XR-4                     0.00           1      0.00     95.00     95.00     0.000      0.00    0.0    0.0
  

  Analysis begun on:  Mon Jul 24 21:11:49 2023
  Analysis ended on:  Mon Jul 24 21:12:28 2023
  Total elapsed time: 00:00:39