
  OWA STORM WATER MANAGEMENT MODEL - VERSION v5.1.14 (OWA 2022-07-31)
  --------------------------------------------------------------

  WARNING 04: minimum elevation drop used for Conduit WS02004404WS02004405
  WARNING 03: negative offset ignored for Link YS02001904YS02001907
  
  *********************************************************
  NOTE: The summary statistics displayed in this report are
  based on results found at every computational time step,  
  not just on results from each reporting time step.
  *********************************************************
  
  ****************
  Analysis Options
  ****************
  Flow Units ............... LPS
  Process Models:
    Rainfall/Runoff ........ YES
    RDII ................... NO
    Snowmelt ............... NO
    Groundwater ............ NO
    Flow Routing ........... YES
    Ponding Allowed ........ NO
    Water Quality .......... NO
  Infiltration Method ...... HORTON
  Flow Routing Method ...... DYNWAVE
  Surcharge Method ......... EXTRAN
  Starting Date ............ 08/28/2015 08:00:00
  Ending Date .............. 08/28/2015 16:00:00
  Antecedent Dry Days ...... 8.0
  Report Time Step ......... 00:01:00
  Wet Time Step ............ 00:01:00
  Dry Time Step ............ 00:01:00
  Routing Time Step ........ 30.00 sec
  Variable Time Step ....... YES
  Maximum Trials ........... 8
  Number of Threads ........ 4
  Head Tolerance ........... 0.001500 m
  
  
  **************************        Volume         Depth
  Runoff Quantity Continuity     hectare-m            mm
  **************************     ---------       -------
  Total Precipitation ......         2.107        63.518
  Evaporation Loss .........         0.000         0.000
  Infiltration Loss ........         0.106         3.210
  Surface Runoff ...........         1.968        59.320
  Final Storage ............         0.033         0.999
  Continuity Error (%) .....        -0.017
  
  
  **************************        Volume        Volume
  Flow Routing Continuity        hectare-m      10^6 ltr
  **************************     ---------     ---------
  Dry Weather Inflow .......         0.025         0.251
  Wet Weather Inflow .......         1.967        19.671
  Groundwater Inflow .......         0.000         0.000
  RDII Inflow ..............         0.000         0.000
  External Inflow ..........         0.083         0.834
  External Outflow .........         2.064        20.638
  Flooding Loss ............         0.109         1.085
  Evaporation Loss .........         0.000         0.000
  Exfiltration Loss ........         0.000         0.000
  Initial Stored Volume ....         0.243         2.431
  Final Stored Volume ......         0.182         1.818
  Continuity Error (%) .....        -1.531
  
  
  *************************
  Highest Continuity Errors
  *************************
  Node YS02001884 (3.40%)
  Node YS02001583 (-2.61%)
  Node WS02006256 (-2.34%)
  Node YS02001774 (1.37%)
  
  
  ***************************
  Time-Step Critical Elements
  ***************************
  Link WS02006252WS02006251 (24.30%)
  Link WS02006238WS02006235 (18.33%)
  Link WS02004404WS02004405 (13.11%)
  Link YS02006556YS02006558 (8.69%)
  Link YS02001791YS02001793 (8.17%)
  
  
  ********************************
  Highest Flow Instability Indexes
  ********************************
  Link WS02006113WS02006111 (41)
  Link YS02001790YS02001791 (30)
  Link WS02006111WS02006112 (23)
  Link WS02004404WS02004405 (21)
  Link WS02006238WS02006235 (20)
  
  
  *************************
  Routing Time Step Summary
  *************************
  Minimum Time Step           :     0.01 sec
  Average Time Step           :     2.36 sec
  Maximum Time Step           :    30.00 sec
  Percent in Steady State     :    -0.00
  Average Iterations per Step :     3.45
  Percent Not Converging      :    13.82
  
  
  ***************************
  Subcatchment Runoff Summary
  ***************************
  
  ------------------------------------------------------------------------------------------------------------------------------
                            Total      Total      Total      Total     Imperv       Perv      Total       Total     Peak  Runoff
                           Precip      Runon       Evap      Infil     Runoff     Runoff     Runoff      Runoff   Runoff   Coeff
  Subcatchment                 mm         mm         mm         mm         mm         mm         mm    10^6 ltr      LPS
  ------------------------------------------------------------------------------------------------------------------------------
  sub60                     63.52       0.00       0.00       1.94      54.69       5.68      60.37        0.79   147.31   0.951
  sub61                     63.52       0.00       0.00       2.82      51.59       7.98      59.57        1.09   203.55   0.938
  sub62                     63.52       0.00       0.00       1.29      57.15       3.79      60.94        1.67   294.43   0.959
  sub63                     63.52       0.00       0.00       5.20      44.13      13.22      57.35        1.30   230.65   0.903
  sub64                     63.52       0.00       0.00       2.63      52.78       6.90      59.67        1.43   242.95   0.939
  sub65                     63.52       0.00       0.00       2.28      54.00       5.98      59.98        1.65   274.87   0.944
  sub66                     63.52       0.00       0.00       6.32      44.01      12.10      56.11        2.62   428.40   0.883
  sub67                     63.52       0.00       0.00       1.23      57.19       3.85      61.04        1.14   219.03   0.961
  sub68                     63.52       0.00       0.00       2.34      53.44       6.56      59.99        1.65   297.93   0.945
  sub69                     63.52       0.00       0.00       2.12      53.87       7.41      61.28        2.27   368.39   0.965
  sub70                     63.52       0.00       0.00       6.80      41.75      14.79      56.54        1.63   254.72   0.890
  sub71                     63.52       0.00       0.00       1.33      57.10       3.75      60.85        1.59   266.49   0.958
  sub72                     63.52       0.00       0.00       1.18      57.66       3.26      60.92        0.84   136.65   0.959
  
  
  ******************
  Node Depth Summary
  ******************
  
  ---------------------------------------------------------------------------------
                                 Average  Maximum  Maximum  Time of Max    Reported
                                   Depth    Depth      HGL   Occurrence   Max Depth
  Node                 Type       Meters   Meters   Meters  days hr:min      Meters
  ---------------------------------------------------------------------------------
  WS02003060           JUNCTION     0.24     0.38     5.32     0  03:02        0.38
  WS02003066           JUNCTION     0.20     0.30     5.85     0  03:02        0.30
  WS02003067           JUNCTION     0.51     0.70     6.02     0  03:01        0.70
  WS02003069           JUNCTION     0.27     0.43     5.01     0  03:03        0.43
  WS02003072           JUNCTION     0.33     0.50     4.87     0  03:04        0.50
  WS02003073           JUNCTION     0.18     0.30     4.36     0  03:05        0.30
  WS02004401           JUNCTION     0.63     0.88     6.88     0  02:59        0.87
  WS02004402           JUNCTION     0.66     0.90     6.86     0  03:03        0.90
  WS02004403           JUNCTION     0.68     0.92     6.85     0  03:00        0.92
  WS02004404           JUNCTION     0.76     1.02     6.87     0  02:37        1.00
  WS02004405           JUNCTION     0.75     0.97     6.82     0  02:59        0.97
  WS02004406           JUNCTION     0.76     0.96     6.79     0  03:00        0.96
  WS02004407           JUNCTION     0.19     0.30     6.61     0  03:00        0.30
  WS02004409           JUNCTION     0.41     0.67     6.44     0  03:01        0.67
  WS02004410           JUNCTION     0.44     0.68     6.40     0  03:04        0.68
  WS02004411           JUNCTION     0.46     0.69     6.37     0  03:02        0.69
  WS02004412           JUNCTION     0.48     0.70     6.34     0  03:02        0.70
  WS02004413           JUNCTION     0.64     0.86     6.33     0  03:03        0.86
  WS02006109           JUNCTION     0.68     1.55     8.16     0  02:48        1.03
  WS02006110           JUNCTION     0.68     1.67     8.25     0  02:48        0.96
  WS02006111           JUNCTION     0.19     0.90     7.60     0  00:00        0.40
  WS02006112           JUNCTION     0.79     2.68     8.56     0  00:00        1.14
  WS02006113           JUNCTION     0.29     1.40     8.29     0  00:00        0.46
  WS02006115           JUNCTION     0.51     1.65     7.79     0  00:00        0.86
  WS02006116           JUNCTION     0.60     1.06     7.10     0  00:00        0.85
  WS02006228           JUNCTION     0.68     1.63     8.28     0  02:12        1.16
  WS02006229           JUNCTION     0.66     1.69     8.38     0  02:12        1.19
  WS02006230           JUNCTION     0.67     2.02     8.77     0  02:12        1.33
  WS02006231           JUNCTION     0.46     1.69     8.81     0  02:12        1.08
  WS02006232           JUNCTION     0.60     1.63     8.67     0  02:12        1.27
  WS02006234           JUNCTION     0.53     1.96     9.12     0  03:44        1.27
  WS02006235           JUNCTION     0.58     1.54     8.70     0  02:12        1.33
  WS02006238           JUNCTION     0.60     1.58     8.72     0  02:12        1.36
  WS02006239           JUNCTION     0.57     1.54     8.75     0  02:12        1.32
  WS02006240           JUNCTION     0.54     1.46     8.76     0  02:12        1.27
  WS02006242           JUNCTION     0.61     1.55     8.82     0  01:17        1.55
  WS02006243           JUNCTION     0.52     1.43     8.85     0  02:47        1.29
  WS02006245           JUNCTION     0.52     1.36     8.85     0  02:47        1.22
  WS02006247           JUNCTION     0.54     1.30     8.80     0  02:47        1.21
  WS02006248           JUNCTION     0.50     1.10     8.69     0  02:12        1.10
  WS02006249           JUNCTION     0.53     1.09     8.69     0  01:17        1.09
  WS02006251           JUNCTION     0.52     1.67     9.34     0  01:18        1.64
  WS02006252           JUNCTION     0.35     1.50     9.74     0  01:09        1.16
  WS02006256           JUNCTION     1.16     2.35     9.28     0  00:00        2.35
  WSF200               JUNCTION     0.17     0.29     5.52     0  03:02        0.29
  YS02001580           JUNCTION     0.16     1.00     9.54     0  01:41        0.67
  YS02001583           JUNCTION     0.19     0.94     9.43     0  01:41        0.71
  YS02001586           JUNCTION     0.33     1.13     9.30     0  01:41        1.00
  YS02001590           JUNCTION     0.48     1.39     9.25     0  01:41        1.25
  YS02001593           JUNCTION     0.42     1.32     9.18     0  01:41        1.19
  YS02001596           JUNCTION     0.60     1.68     9.10     0  01:41        1.59
  YS02001600           JUNCTION     0.73     1.87     9.00     0  01:41        1.83
  YS02001601           JUNCTION     0.93     2.06     8.90     0  01:40        2.06
  YS02001602           JUNCTION     0.80     1.87     8.77     0  02:19        1.87
  YS02001605           JUNCTION     0.72     1.74     8.65     0  02:23        1.74
  YS02001607           JUNCTION     0.61     1.57     8.41     0  02:22        1.54
  YS02001610           JUNCTION     0.65     1.61     8.41     0  02:21        1.59
  YS02001613           JUNCTION     0.61     1.57     8.41     0  02:21        1.54
  YS02001616           JUNCTION     0.54     1.49     8.40     0  02:21        1.46
  YS02001619           JUNCTION     0.52     1.46     8.39     0  02:21        1.44
  YS02001622           JUNCTION     0.50     1.45     8.35     0  02:21        1.42
  YS02001625           JUNCTION     0.74     1.70     8.30     0  02:21        1.67
  YS02001629           JUNCTION     0.66     1.70     8.25     0  02:21        1.68
  YS02001633           JUNCTION     0.71     1.73     8.18     0  02:21        1.72
  YS02001641           JUNCTION     0.65     1.55     7.99     0  02:23        1.55
  YS02001644           JUNCTION     0.63     1.49     7.92     0  02:23        1.49
  YS02001647           JUNCTION     0.39     1.21     7.82     0  02:23        1.20
  YS02001649           JUNCTION     0.45     1.31     7.70     0  02:22        1.30
  YS02001652           JUNCTION     0.32     1.12     7.71     0  02:23        1.11
  YS02001655           JUNCTION     0.21     0.86     7.71     0  02:23        0.86
  YS02001658           JUNCTION     0.13     0.56     7.70     0  02:23        0.55
  YS02001661           JUNCTION     0.15     0.27     7.68     0  01:41        0.27
  YS02001664           JUNCTION     0.08     0.18     8.11     0  01:41        0.18
  YS02001745           JUNCTION     0.07     0.16     7.68     0  01:41        0.16
  YS02001748           JUNCTION     0.12     0.51     7.58     0  02:23        0.50
  YS02001751           JUNCTION     0.16     0.71     7.59     0  02:22        0.70
  YS02001754           JUNCTION     0.26     0.98     7.59     0  02:22        0.97
  YS02001757           JUNCTION     0.46     1.33     7.59     0  02:22        1.32
  YS02001759           JUNCTION     0.40     1.23     7.60     0  02:22        1.23
  YS02001762           JUNCTION     0.38     1.20     7.60     0  02:23        1.20
  YS02001765           JUNCTION     0.36     1.15     7.60     0  02:23        1.15
  YS02001767           JUNCTION     0.35     1.11     7.60     0  02:23        1.11
  YS02001770           JUNCTION     0.36     1.12     7.61     0  02:21        1.12
  YS02001774           JUNCTION     0.42     1.19     7.61     0  02:21        1.19
  YS02001779           JUNCTION     0.24     0.93     7.61     0  02:22        0.92
  YS02001783           JUNCTION     0.33     0.77     6.91     0  02:24        0.77
  YS02001784           JUNCTION     0.35     0.75     6.82     0  02:24        0.75
  YS02001786           JUNCTION     0.29     0.61     6.64     0  02:25        0.61
  YS02001788           JUNCTION     0.22     0.49     6.47     0  02:24        0.49
  YS02001790           JUNCTION     0.27     0.58     6.23     0  02:25        0.58
  YS02001791           JUNCTION     0.17     0.35     5.82     0  02:25        0.35
  YS02001793           JUNCTION     0.08     0.18     5.01     0  02:25        0.18
  YS02001882           JUNCTION     0.36     0.81     7.53     0  02:24        0.80
  YS02001884           JUNCTION     0.44     0.91     7.53     0  02:24        0.91
  YS02001887           JUNCTION     0.52     0.99     7.52     0  02:23        0.98
  YS02001890           JUNCTION     0.55     1.02     7.53     0  02:24        1.01
  YS02001895           JUNCTION     0.33     0.77     7.52     0  02:24        0.77
  YS02001898           JUNCTION     0.34     0.78     7.52     0  02:24        0.78
  YS02001901           JUNCTION     0.44     0.91     7.52     0  02:24        0.91
  YS02001904           JUNCTION     0.42     0.89     7.52     0  02:23        0.88
  YS02001907           JUNCTION     0.73     1.23     7.52     0  01:43        1.22
  YS02001910           JUNCTION     0.54     1.08     7.59     0  01:43        1.02
  YS02001915           JUNCTION     0.35     0.81     7.53     0  02:25        0.81
  YS02001918           JUNCTION     0.16     0.46     7.53     0  02:24        0.46
  YS02001920           JUNCTION     0.23     0.53     7.54     0  02:24        0.53
  YS02001923           JUNCTION     0.09     0.27     7.53     0  02:25        0.26
  YS02001926           JUNCTION     0.16     0.31     7.75     0  02:22        0.31
  YS02001929           JUNCTION     0.08     0.17     7.87     0  02:22        0.17
  YS02006553           JUNCTION     0.73     1.22     7.51     0  02:23        1.22
  YS02006556           JUNCTION     0.70     1.18     7.49     0  01:44        1.18
  YS02006558           JUNCTION     0.74     1.21     7.48     0  01:44        1.21
  YS02006561           JUNCTION     0.18     0.40     7.06     0  02:24        0.40
  YS02163301           JUNCTION     0.67     1.70     8.22     0  02:21        1.69
  YS02163601           JUNCTION     0.73     1.69     8.09     0  02:23        1.69
  YS02164001           JUNCTION     0.65     1.58     8.03     0  02:23        1.58
  CC-1                 OUTFALL      0.00     0.00     0.00     0  00:00        0.00
  CC-2                 OUTFALL      0.00     0.00     0.00     0  00:00        0.00
  JK-1                 OUTFALL      0.00     0.00     0.00     0  00:00        0.00
  JK-2                 OUTFALL      0.00     0.00     0.00     0  00:00        0.00
  WSC                  OUTFALL      0.18     0.30     0.97     0  03:05        0.30
  CC-storage           STORAGE      0.82     1.53     7.03     0  03:01        1.53
  JK-storage           STORAGE      1.42     4.21     5.01     0  03:01        4.15
  
  
  *******************
  Node Inflow Summary
  *******************
  
  -------------------------------------------------------------------------------------------------
                                  Maximum  Maximum                  Lateral       Total        Flow
                                  Lateral    Total  Time of Max      Inflow      Inflow     Balance
                                   Inflow   Inflow   Occurrence      Volume      Volume       Error
  Node                 Type           LPS      LPS  days hr:min    10^6 ltr    10^6 ltr     Percent
  -------------------------------------------------------------------------------------------------
  WS02003060           JUNCTION     16.53   553.30     0  03:02       0.476         5.6       0.043
  WS02003066           JUNCTION      0.00   536.23     0  03:02           0        5.13       0.030
  WS02003067           JUNCTION      0.00   536.16     0  03:03           0        5.13       0.082
  WS02003069           JUNCTION      0.32   553.39     0  03:02     0.00922        5.61       0.074
  WS02003072           JUNCTION      0.00   553.03     0  03:03           0         5.6       0.133
  WS02003073           JUNCTION      1.82   554.80     0  03:04      0.0524        5.65       0.108
  WS02004401           JUNCTION      0.00  1697.33     0  00:00           0        5.24       0.216
  WS02004402           JUNCTION      0.00  1210.03     0  00:01           0        5.22       0.209
  WS02004403           JUNCTION      0.00   817.89     0  00:01           0        5.21       0.202
  WS02004404           JUNCTION      0.16   816.53     0  00:01     0.00467         5.2       0.149
  WS02004405           JUNCTION      0.04   789.03     0  00:01      0.0011         5.2       0.217
  WS02004406           JUNCTION      0.00   724.33     0  00:02           0        5.19       0.417
  WS02004407           JUNCTION      0.00   538.83     0  03:00           0        5.17       0.021
  WS02004409           JUNCTION      0.00   538.21     0  03:00           0        5.16       0.054
  WS02004410           JUNCTION      0.00   537.48     0  03:00           0        5.16       0.091
  WS02004411           JUNCTION      0.00   537.05     0  03:00           0        5.16       0.113
  WS02004412           JUNCTION      0.00   536.56     0  03:01           0        5.15       0.148
  WS02004413           JUNCTION      0.00   536.44     0  03:02           0        5.14       0.267
  WS02006109           JUNCTION      1.23  1308.01     0  00:00      0.0354        5.16       0.124
  WS02006110           JUNCTION      0.00   564.82     0  01:19           0        5.13      -0.700
  WS02006111           JUNCTION      0.00  1176.04     0  00:00           0        5.16      -0.749
  WS02006112           JUNCTION      0.00  2307.30     0  00:00           0         5.2       0.010
  WS02006113           JUNCTION      0.00   573.39     0  01:19           0        5.12      -0.964
  WS02006115           JUNCTION      0.00   898.70     0  00:00           0        5.17      -0.621
  WS02006116           JUNCTION      0.00  1144.85     0  00:01           0        5.21      -0.534
  WS02006228           JUNCTION      0.00   561.40     0  02:12           0         5.1       0.042
  WS02006229           JUNCTION      0.00   561.13     0  02:12           0        5.09       0.152
  WS02006230           JUNCTION     10.28   592.23     0  03:26       0.296        5.07       0.001
  WS02006231           JUNCTION      0.00   584.62     0  02:47           0        4.76      -0.036
  WS02006232           JUNCTION      0.00   583.40     0  02:47           0        4.77       0.170
  WS02006234           JUNCTION      0.00   576.92     0  02:47           0        4.76      -0.217
  WS02006235           JUNCTION      0.00   564.82     0  02:47           0        4.84       0.350
  WS02006238           JUNCTION      0.00   429.33     0  03:29           0        3.79      -0.147
  WS02006239           JUNCTION      0.00   428.95     0  03:29           0        3.73      -0.196
  WS02006240           JUNCTION      0.00   425.99     0  03:29           0        3.71       0.016
  WS02006242           JUNCTION      0.00   425.79     0  03:29           0         3.7      -0.071
  WS02006243           JUNCTION      0.00   426.97     0  03:29           0        3.69      -0.119
  WS02006245           JUNCTION      0.00   428.25     0  03:29           0         3.7       0.357
  WS02006247           JUNCTION      0.00   428.94     0  03:29           0         3.7      -0.039
  WS02006248           JUNCTION      0.00   428.01     0  03:29           0         3.7      -0.041
  WS02006249           JUNCTION      0.00   793.83     0  00:00           0        3.92       0.240
  WS02006251           JUNCTION      0.08   453.22     0  00:00     0.00222        3.91      -0.271
  WS02006252           JUNCTION      0.00   400.00     0  00:00           0        3.87      -0.969
  WS02006256           JUNCTION      0.00   300.00     0  00:00           0        1.52      -2.287
  WSF200               JUNCTION      0.00   536.32     0  03:02           0        5.12       0.008
  YS02001580           JUNCTION      0.00    61.67     0  01:41           0     0.00579       0.323
  YS02001583           JUNCTION      0.00    97.48     0  01:40           0      0.0208      -2.540
  YS02001586           JUNCTION    254.72   254.93     0  02:22        1.63        1.65       0.073
  YS02001590           JUNCTION      0.00   255.00     0  02:22           0        1.63      -0.033
  YS02001593           JUNCTION      0.00   255.04     0  02:22           0        1.63       0.004
  YS02001596           JUNCTION      0.00   254.89     0  02:22           0        1.63      -0.011
  YS02001600           JUNCTION      0.00   254.87     0  02:22           0        1.63       0.018
  YS02001601           JUNCTION    368.39   622.38     0  02:21        2.27         3.9       0.017
  YS02001602           JUNCTION      0.00   513.27     0  01:50           0        3.54       0.014
  YS02001605           JUNCTION      0.00   513.31     0  01:50           0        3.53       0.013
  YS02001607           JUNCTION      0.00   513.36     0  01:50           0        3.53       0.056
  YS02001610           JUNCTION      0.00   513.42     0  01:50           0        3.53       0.077
  YS02001613           JUNCTION      0.00   513.47     0  01:50           0        3.53       0.050
  YS02001616           JUNCTION      0.00   513.58     0  01:51           0        3.54       0.013
  YS02001619           JUNCTION    428.40   883.41     0  02:13        2.62        6.15      -0.003
  YS02001622           JUNCTION      0.00   882.94     0  02:13           0        6.14      -0.003
  YS02001625           JUNCTION      0.00   882.77     0  02:13           0        6.14       0.180
  YS02001629           JUNCTION      0.00   882.47     0  02:13           0        6.13      -0.003
  YS02001633           JUNCTION    275.07  1151.57     0  01:42        1.66         7.8       0.045
  YS02001641           JUNCTION      0.00  1151.82     0  01:41           0         7.8       0.036
  YS02001644           JUNCTION    242.99  1394.58     0  01:42        1.43        9.22       0.035
  YS02001647           JUNCTION      0.00  1395.24     0  01:41           0        9.21       0.004
  YS02001649           JUNCTION      0.00  1638.43     0  01:43           0        10.5       0.006
  YS02001652           JUNCTION      0.00   263.03     0  01:43           0         1.3      -0.146
  YS02001655           JUNCTION      0.15   280.63     0  02:23     0.00443        1.31       0.108
  YS02001658           JUNCTION      0.00   230.40     0  01:41           0         1.3      -0.006
  YS02001661           JUNCTION      0.00   230.57     0  01:41           0         1.3       0.025
  YS02001664           JUNCTION    230.65   230.65     0  01:41         1.3         1.3      -0.011
  YS02001745           JUNCTION    147.32   147.32     0  01:41       0.793       0.793       0.079
  YS02001748           JUNCTION      0.04   147.28     0  01:41      0.0013       0.794      -0.119
  YS02001751           JUNCTION      0.01   168.21     0  02:22    0.000317       0.795       0.162
  YS02001754           JUNCTION      0.26   155.59     0  02:23     0.00749       0.801      -0.193
  YS02001757           JUNCTION      0.00  2195.20     0  01:43           0        14.1       0.026
  YS02001759           JUNCTION    203.59   473.24     0  02:22        1.09        2.78      -0.006
  YS02001762           JUNCTION      0.00   301.00     0  01:45           0        1.69       0.006
  YS02001765           JUNCTION      0.00   301.08     0  01:46           0        1.69       0.016
  YS02001767           JUNCTION      0.54   302.20     0  01:45      0.0154        1.69       0.014
  YS02001770           JUNCTION    294.58   294.58     0  01:41        1.67        1.73      -0.013
  YS02001774           JUNCTION      0.00    56.61     0  01:06           0      0.0873       1.390
  YS02001779           JUNCTION      0.01    40.15     0  01:43    0.000144      0.0284       0.094
  YS02001783           JUNCTION      0.00   842.79     0  02:24           0        5.27       0.006
  YS02001784           JUNCTION      1.06   843.47     0  02:24      0.0305         5.3       0.009
  YS02001786           JUNCTION      0.06   842.46     0  02:24     0.00162         5.3       0.013
  YS02001788           JUNCTION      0.07   842.41     0  02:25     0.00204         5.3       0.007
  YS02001790           JUNCTION      0.15   843.51     0  02:25     0.00446         5.3       0.020
  YS02001791           JUNCTION      0.00   891.84     0  02:24           0         5.3      -0.006
  YS02001793           JUNCTION      0.00   851.84     0  02:25           0         5.3       0.005
  YS02001882           JUNCTION      0.00    39.05     0  01:14           0      0.0294       2.507
  YS02001884           JUNCTION      0.00    76.80     0  01:12           0      0.0749       3.518
  YS02001887           JUNCTION    219.48   219.48     0  01:40        1.15        1.19       0.364
  YS02001890           JUNCTION      0.00   217.97     0  01:39           0        1.14       0.456
  YS02001895           JUNCTION      0.00   205.66     0  01:39           0        1.14       0.232
  YS02001898           JUNCTION      0.00   209.97     0  01:39           0        1.13      -0.030
  YS02001901           JUNCTION      0.00   216.11     0  01:45           0        1.14       0.299
  YS02001904           JUNCTION      0.00   225.46     0  01:44           0        1.15       0.249
  YS02001907           JUNCTION      0.00   583.08     0  02:27           0        3.66       0.486
  YS02001910           JUNCTION      0.00   429.39     0  01:42           0        2.51       0.283
  YS02001915           JUNCTION    266.51   393.89     0  02:26        1.59        2.51       0.063
  YS02001918           JUNCTION      0.00   143.37     0  02:26           0       0.921       0.037
  YS02001920           JUNCTION      2.87   141.80     0  02:25      0.0827       0.922       0.122
  YS02001923           JUNCTION      0.04   136.67     0  02:22     0.00109        0.84       0.001
  YS02001926           JUNCTION      0.05   136.69     0  02:22      0.0015       0.839       0.040
  YS02001929           JUNCTION    136.65   136.65     0  02:22       0.838       0.838      -0.008
  YS02006553           JUNCTION      0.00   582.83     0  02:26           0        3.66       0.315
  YS02006556           JUNCTION      0.00   582.36     0  02:27           0        3.67       0.218
  YS02006558           JUNCTION    298.81   842.36     0  02:23        1.68        5.31       0.057
  YS02006561           JUNCTION      0.00   842.75     0  02:24           0        5.27       0.002
  YS02163301           JUNCTION      0.00   880.16     0  02:12           0        6.14       0.025
  YS02163601           JUNCTION      0.11  1151.10     0  01:42     0.00317        7.79       0.066
  YS02164001           JUNCTION      0.00  1151.94     0  01:41           0        7.79       0.031
  CC-1                 OUTFALL       0.00   683.00     0  00:05           0        5.43       0.000
  CC-2                 OUTFALL       0.00   683.00     0  00:00           0        5.66       0.000
  JK-1                 OUTFALL       0.00  1000.00     0  00:00           0        2.07       0.000
  JK-2                 OUTFALL       0.00  1000.00     0  01:14           0        1.83       0.000
  WSC                  OUTFALL       0.00   554.73     0  03:05           0        5.64       0.000
  CC-storage           STORAGE       0.00  2161.31     0  01:44           0        16.3      -0.167
  JK-storage           STORAGE       0.00   852.81     0  02:25           0        5.45      -0.320
  
  
  **********************
  Node Surcharge Summary
  **********************
  
  Surcharging occurs when water rises above the top of the highest conduit.
  ---------------------------------------------------------------------
                                               Max. Height   Min. Depth
                                   Hours       Above Crown    Below Rim
  Node                 Type      Surcharged         Meters       Meters
  ---------------------------------------------------------------------
  WS02004404           JUNCTION        0.01          0.023        2.757
  WS02006109           JUNCTION        2.31          0.727        1.093
  WS02006110           JUNCTION        0.71          0.756        1.094
  WS02006111           JUNCTION        0.01          0.087        1.783
  WS02006112           JUNCTION        0.85          1.680        0.000
  WS02006113           JUNCTION        0.01          0.600        1.330
  WS02006115           JUNCTION        0.01          0.642        1.608
  WS02006116           JUNCTION        0.01          0.000        2.290
  WS02006228           JUNCTION        2.30          0.804        1.396
  WS02006229           JUNCTION        2.30          0.888        1.562
  WS02006230           JUNCTION        0.71          0.941        0.629
  WS02006231           JUNCTION        0.85          0.976        0.554
  WS02006232           JUNCTION        2.38          0.929        0.551
  WS02006234           JUNCTION        1.30          1.240        0.000
  WS02006235           JUNCTION        2.29          0.827        0.463
  WS02006238           JUNCTION        2.32          0.856        0.574
  WS02006239           JUNCTION        2.28          0.797        0.493
  WS02006240           JUNCTION        2.28          0.754        0.636
  WS02006242           JUNCTION        2.29          0.820        0.000
  WS02006243           JUNCTION        2.16          0.718        0.052
  WS02006245           JUNCTION        2.10          0.651        0.199
  WS02006247           JUNCTION        2.10          0.592        0.168
  WS02006248           JUNCTION        2.07          0.380        0.000
  WS02006249           JUNCTION        2.07          0.390        0.000
  WS02006251           JUNCTION        0.88          0.636        0.544
  WS02006252           JUNCTION        2.47          1.100        0.000
  WS02006256           JUNCTION        6.62          2.050        0.000
  YS02001580           JUNCTION        0.17          0.404        0.046
  YS02001583           JUNCTION        0.19          0.296        0.204
  YS02001586           JUNCTION        1.38          0.510        0.000
  YS02001590           JUNCTION        1.45          0.742        0.008
  YS02001593           JUNCTION        1.45          0.699        0.141
  YS02001596           JUNCTION        1.65          0.947        0.123
  YS02001600           JUNCTION        1.98          1.190        0.000
  YS02001601           JUNCTION        2.17          1.440        0.000
  YS02001602           JUNCTION        2.11          1.270        0.000
  YS02001605           JUNCTION        2.08          1.144        0.036
  YS02001607           JUNCTION        1.42          0.567        0.113
  YS02001610           JUNCTION        1.44          0.612        0.068
  YS02001613           JUNCTION        1.42          0.568        0.132
  YS02001616           JUNCTION        1.35          0.486        0.124
  YS02001619           JUNCTION        1.23          0.462        0.148
  YS02001622           JUNCTION        1.16          0.451        0.169
  YS02001625           JUNCTION        1.52          0.699        0.081
  YS02001629           JUNCTION        0.78          0.324        0.146
  YS02001633           JUNCTION        1.53          0.710        0.350
  YS02001641           JUNCTION        1.47          0.550        0.550
  YS02001644           JUNCTION        1.44          0.490        0.430
  YS02001647           JUNCTION        0.75          0.206        0.694
  YS02001649           JUNCTION        0.83          0.311        0.739
  YS02001652           JUNCTION        0.16          0.086        1.044
  YS02001757           JUNCTION        0.88          0.325        0.885
  YS02001759           JUNCTION        0.80          0.232        0.978
  YS02001762           JUNCTION        0.77          0.200        0.950
  YS02001765           JUNCTION        0.74          0.152        0.948
  YS02001767           JUNCTION        0.71          0.114        0.916
  YS02001770           JUNCTION        0.21          0.087        0.833
  YS02001774           JUNCTION        0.76          0.190        0.860
  YS02001907           JUNCTION        1.54          0.218        0.732
  YS02001910           JUNCTION        0.11          0.080        1.020
  YS02006553           JUNCTION        1.58          0.224        0.966
  YS02006556           JUNCTION        0.75          0.139        1.211
  YS02006558           JUNCTION        0.65          0.113        1.287
  YS02163301           JUNCTION        1.52          0.705        0.325
  YS02163601           JUNCTION        1.56          0.689        0.391
  YS02164001           JUNCTION        1.48          0.577        0.523
  
  
  *********************
  Node Flooding Summary
  *********************
  
  Flooding refers to all water that overflows a node, whether it ponds or not.
  --------------------------------------------------------------------------
                                                             Total   Maximum
                                 Maximum   Time of Max       Flood    Ponded
                        Hours       Rate    Occurrence      Volume     Depth
  Node                 Flooded       LPS   days hr:min    10^6 ltr    Meters
  --------------------------------------------------------------------------
  WS02006112              0.01   1547.89      0  00:00       0.047     0.000
  WS02006234              0.01     48.51      0  03:44       0.000     0.000
  WS02006242              0.01     38.32      0  01:17       0.000     0.000
  WS02006248              0.01     11.10      0  02:47       0.000     0.000
  WS02006249              0.85    117.01      0  01:18       0.206     0.000
  WS02006252              0.01      0.91      0  01:09       0.000     0.000
  WS02006256              1.41    288.36      0  01:50       0.486     0.000
  YS02001586              0.01     23.84      0  01:41       0.000     0.000
  YS02001600              0.01      1.29      0  01:41       0.000     0.000
  YS02001601              1.04    224.54      0  02:21       0.363     0.000
  YS02001602              0.12     19.79      0  02:22       0.004     0.000
  
  
  **********************
  Storage Volume Summary
  **********************
  
  --------------------------------------------------------------------------------------------------
                         Average     Avg  Evap Exfil       Maximum     Max    Time of Max    Maximum
                          Volume    Pcnt  Pcnt  Pcnt        Volume    Pcnt     Occurrence    Outflow
  Storage Unit           1000 m3    Full  Loss  Loss       1000 m3    Full    days hr:min        LPS
  --------------------------------------------------------------------------------------------------
  CC-storage               2.295      36     0     0         4.260      66       0  03:01    1766.00
  JK-storage               0.071      25     0     0         0.211      73       0  03:01    2000.00
  
  
  ***********************
  Outfall Loading Summary
  ***********************
  
  -----------------------------------------------------------
                         Flow       Avg       Max       Total
                         Freq      Flow      Flow      Volume
  Outfall Node           Pcnt       LPS       LPS    10^6 ltr
  -----------------------------------------------------------
  CC-1                  45.40    683.00    683.00       5.433
  CC-2                  43.22    683.00    683.00       5.656
  JK-1                  13.61   1000.00   1000.00       2.074
  JK-2                  10.81   1000.00   1000.00       1.833
  WSC                   99.99    267.64    554.73       5.641
  -----------------------------------------------------------
  System                42.61   3633.64    554.73      20.638
  
  
  ********************
  Link Flow Summary
  ********************
  
  -----------------------------------------------------------------------------
                                 Maximum  Time of Max   Maximum    Max/    Max/
                                  |Flow|   Occurrence   |Veloc|    Full    Full
  Link                 Type          LPS  days hr:min     m/sec    Flow   Depth
  -----------------------------------------------------------------------------
  1                    CONDUIT    554.73     0  03:05      2.83    0.19    0.30
  WS02003060WS02003069 CONDUIT    553.07     0  03:02      1.64    0.22    0.34
  WS02003066WSF200     CONDUIT    536.32     0  03:02      2.85    0.09    0.22
  WS02003067WS02003066 CONDUIT    536.23     0  03:02      1.21    0.17    0.42
  WS02003069WS02003072 CONDUIT    553.03     0  03:03      1.37    0.27    0.39
  WS02003072WS02003073 CONDUIT    552.98     0  03:04      1.43    1.19    0.37
  WS02004401WS02004402 CONDUIT   1210.03     0  00:01      2.53    1.45    0.89
  WS02004402WS02004403 CONDUIT    817.89     0  00:01      2.15    1.18    0.91
  WS02004403WS02004404 CONDUIT    816.37     0  00:01      1.91    0.59    0.96
  WS02004404WS02004405 CONDUIT    788.99     0  00:01      2.33    7.73    0.98
  WS02004405WS02004406 CONDUIT    724.33     0  00:02      2.23    1.43    0.96
  WS02004406WS02004407 CONDUIT    538.83     0  03:00      1.04    0.24    0.63
  WS02004407WS02004409 CONDUIT    538.21     0  03:00      1.95    0.19    0.48
  WS02004409WS02004410 CONDUIT    537.48     0  03:00      1.31    0.70    0.67
  WS02004410WS02004411 CONDUIT    537.05     0  03:00      1.22    0.73    0.69
  WS02004411WS02004412 CONDUIT    536.56     0  03:01      1.16    0.76    0.69
  WS02004412WS02004413 CONDUIT    536.44     0  03:02      1.15    0.36    0.78
  WS02004413WS02003067 CONDUIT    536.16     0  03:03      1.11    0.23    0.59
  WS02006109WS02006110 CONDUIT   1306.78     0  00:00      3.14    2.51    1.00
  WS02006110WS02006113 CONDUIT    573.39     0  01:19      1.38    0.52    1.00
  WS02006111WS02006112 CONDUIT   2307.30     0  00:00      9.18    1.10    0.91
  WS02006112WS02006115 CONDUIT    898.70     0  00:00      1.15    0.53    1.00
  WS02006113WS02006111 CONDUIT   1176.04     0  00:00      2.47    1.41    1.00
  WS02006115WS02006116 CONDUIT   1144.85     0  00:01      1.76    1.47    1.00
  WS02006116WS02004401 CONDUIT   1697.33     0  00:00      3.01    2.34    0.86
  WS02006228WS02006109 CONDUIT    561.77     0  01:19      1.40    2.45    1.00
  WS02006229WS02006228 CONDUIT    561.40     0  02:12      1.25    1.86    1.00
  WS02006230WS02006229 CONDUIT    561.13     0  02:12      1.46   12.49    1.00
  WS02006231WS02006230 CONDUIT    581.96     0  03:26      1.59    8.83    1.00
  WS02006232WS02006231 CONDUIT    584.62     0  02:47      1.53    1.23    1.00
  WS02006234WS02006232 CONDUIT    583.40     0  02:47      1.52    1.18    1.00
  WS02006235WS02006234 CONDUIT    576.92     0  02:47      1.50    6.09    1.00
  WS02006238WS02006235 CONDUIT    438.49     0  03:28      1.48    0.98    1.00
  WS02006239WS02006238 CONDUIT    429.33     0  03:29      1.13    1.37    1.00
  WS02006240WS02006239 CONDUIT    428.95     0  03:29      1.33    1.35    1.00
  WS02006242WS02006240 CONDUIT    425.99     0  03:29      1.11    1.69    1.00
  WS02006243WS02006242 CONDUIT    425.79     0  03:29      1.33    0.91    1.00
  WS02006245WS02006243 CONDUIT    426.97     0  03:29      1.46    1.26    1.00
  WS02006247WS02006245 CONDUIT    428.25     0  03:29      1.46    3.40    1.00
  WS02006248WS02006247 CONDUIT    428.94     0  03:29      1.50    0.93    1.00
  WS02006249WS02006248 CONDUIT    428.01     0  03:29      1.44    2.34    1.00
  WS02006251WS02006249 CONDUIT    793.83     0  00:00      2.76    2.29    1.00
  WS02006252WS02006251 CONDUIT    453.14     0  00:00     21.37    1.66    1.00
  WS02006256WS02006235 CONDUIT    288.76     0  00:01      4.23    3.06    1.00
  WSF200WS02003060     CONDUIT    536.78     0  03:02      2.06    0.12    0.28
  YS02001580YS02001583 CONDUIT     61.67     0  01:41      0.51    0.24    1.00
  YS02001583YS02001586 CONDUIT     96.83     0  01:40      0.43    0.15    1.00
  YS02001586YS02001590 CONDUIT    255.00     0  02:22      1.27    0.45    1.00
  YS02001590YS02001593 CONDUIT    255.04     0  02:22      1.05    1.60    1.00
  YS02001593YS02001596 CONDUIT    254.89     0  02:22      1.70    0.40    1.00
  YS02001596YS02001600 CONDUIT    254.87     0  02:22      1.23    0.50    1.00
  YS02001600YS02001601 CONDUIT    254.87     0  02:22      0.90    0.44    1.00
  YS02001601YS02001602 CONDUIT    513.27     0  01:50      1.82    1.85    1.00
  YS02001602YS02001605 CONDUIT    513.31     0  01:50      1.82   10.86    1.00
  YS02001605YS02001607 CONDUIT    513.36     0  01:50      1.82    2.82    1.00
  YS02001607YS02001610 CONDUIT    513.42     0  01:50      0.75    0.49    1.00
  YS02001610YS02001613 CONDUIT    513.47     0  01:50      0.65    0.59    1.00
  YS02001613YS02001616 CONDUIT    513.58     0  01:51      0.71    0.44    1.00
  YS02001616YS02001619 CONDUIT    513.87     0  01:51      0.80    0.89    1.00
  YS02001619YS02001622 CONDUIT    882.94     0  02:13      1.63    1.30    1.00
  YS02001622YS02001625 CONDUIT    882.77     0  02:13      1.12    0.47    1.00
  YS02001625YS02001629 CONDUIT    882.47     0  02:13      1.13    0.42    1.00
  YS02001629YS02163301 CONDUIT    880.16     0  02:12      1.12    1.08    1.00
  YS02001633YS02163601 CONDUIT   1150.99     0  01:42      1.47    1.21    1.00
  YS02001641YS02001644 CONDUIT   1151.66     0  01:41      1.47    3.72    1.00
  YS02001644YS02001647 CONDUIT   1395.24     0  01:41      1.97    0.82    1.00
  YS02001647YS02001649 CONDUIT   1403.70     0  01:42      2.29    0.74    1.00
  YS02001649YS02001757 CONDUIT   1633.35     0  01:43      2.50    0.99    1.00
  YS02001652YS02001649 CONDUIT    261.18     0  01:43      1.22    0.13    1.00
  YS02001655YS02001652 CONDUIT    263.03     0  01:43      1.60    0.13    0.93
  YS02001658YS02001655 CONDUIT    280.47     0  02:23      1.81    0.12    0.70
  YS02001661YS02001658 CONDUIT    230.40     0  01:41      1.96    0.09    0.38
  YS02001664YS02001661 CONDUIT    230.57     0  01:41      1.71    0.07    0.23
  YS02001745YS02001748 CONDUIT    147.23     0  01:41      1.79    0.06    0.29
  YS02001748YS02001751 CONDUIT    168.19     0  02:22      1.50    0.08    0.60
  YS02001751YS02001754 CONDUIT    155.33     0  02:23      1.45    0.07    0.82
  YS02001754YS02001757 CONDUIT    181.20     0  01:39      0.96    0.07    0.99
  YS02001757CaochengTiaoxuchi CONDUIT   2161.31     0  01:44      3.30    0.94    1.00
  YS02001759YS02001757 CONDUIT    475.07     0  01:45      1.26    0.34    1.00
  YS02001762YS02001759 CONDUIT    299.95     0  01:45      0.74    0.35    1.00
  YS02001765YS02001762 CONDUIT    301.00     0  01:45      0.85    0.28    1.00
  YS02001767YS02001765 CONDUIT    301.08     0  01:46      0.91    0.38    1.00
  YS02001770YS02001767 CONDUIT    301.67     0  01:45      0.83    1.19    1.00
  YS02001774YS02001770 CONDUIT     56.61     0  01:06      0.66    0.04    1.00
  YS02001779YS02001774 CONDUIT     40.14     0  01:43      0.17    0.02    0.96
  YS02001783YS02001784 CONDUIT    842.41     0  02:24      1.71    1.16    0.95
  YS02001784YS02001785 CONDUIT    842.40     0  02:24      1.84    1.96    0.85
  YS02001786YS02001788 CONDUIT    842.33     0  02:25      2.28    1.62    0.69
  YS02001788YS02001790 CONDUIT    843.36     0  02:25      2.39    0.62    0.67
  YS02001790YS02001791 CONDUIT    891.84     0  02:24      2.96    0.97    0.58
  YS02001791YS02001793 CONDUIT    851.84     0  02:25      5.97    0.37    0.33
  YS02001793JiankangQianchi CONDUIT    852.81     0  02:25      1.78    0.07    0.59
  YS02001882YS02001884 CONDUIT     39.05     0  01:14      0.36    0.04    0.83
  YS02001884YS02001887 CONDUIT     76.80     0  01:12      0.30    0.10    0.92
  YS02001887YS02001890 CONDUIT    217.97     0  01:39      0.36    0.37    0.98
  YS02001890YS02001895 CONDUIT    205.66     0  01:39      0.39    0.10    0.89
  YS02001895YS02001898 CONDUIT    209.97     0  01:39      0.63    0.36    0.76
  YS02001898YS02001901 CONDUIT    216.11     0  01:45      0.55    0.14    0.85
  YS02001901YS02001904 CONDUIT    225.46     0  01:44      0.58    0.35    0.90
  YS02001904YS02001907 CONDUIT    200.23     0  01:48      0.34    0.07    0.94
  YS02001907YS02006553 CONDUIT    582.83     0  02:26      0.65    0.69    1.00
  YS02001910YS02001907 CONDUIT    403.20     0  01:47      0.51    0.23    1.00
  YS02001915YS02001910 CONDUIT    429.39     0  01:42      1.05    0.21    0.90
  YS02001918YS02001915 CONDUIT    149.13     0  02:27      0.44    0.08    0.63
  YS02001920YS02001918 CONDUIT    143.37     0  02:26      0.67    0.14    0.49
  YS02001923YS02001920 CONDUIT    138.93     0  02:25      0.73    0.06    0.40
  YS02001926YS02001923 CONDUIT    136.63     0  02:22      0.86    0.20    0.26
  YS02001929YS02001926 CONDUIT    136.63     0  02:22      0.95    0.06    0.24
  YS02006553YS02006556 CONDUIT    582.36     0  02:27      0.74    0.50    1.00
  YS02006556YS02006558 CONDUIT    584.65     0  02:27      0.74    0.46    1.00
  YS02006558YS02006561 CONDUIT    842.75     0  02:24      3.34    1.86    0.84
  YS02006561YS02001783 CONDUIT    842.79     0  02:24      2.14    0.44    0.73
  YS02163301YS02001633 CONDUIT    878.91     0  02:12      1.12    0.83    1.00
  YS02163601YS02164001 CONDUIT   1151.94     0  01:41      1.47    1.02    1.00
  YS02164001YS02001641 CONDUIT   1151.82     0  01:41      1.47    1.57    1.00
  CC-R1                PUMP       683.00     0  00:05              1.00
  CC-R2                PUMP       683.00     0  00:00              1.00
  CC-S1                PUMP       200.00     0  00:00              1.00
  CC-S2                PUMP       200.00     0  00:00              1.00
  JK-R1                PUMP      1000.00     0  00:00              1.00
  JK-R2                PUMP      1000.00     0  01:14              1.00
  JK-S                 PUMP       300.00     0  00:00              1.00
  
  
  ***************************
  Flow Classification Summary
  ***************************
  
  -------------------------------------------------------------------------------------
                      Adjusted    ---------- Fraction of Time in Flow Class ---------- 
                       /Actual         Up    Down  Sub   Sup   Up    Down  Norm  Inlet 
  Conduit               Length    Dry  Dry   Dry   Crit  Crit  Crit  Crit  Ltd   Ctrl  
  -------------------------------------------------------------------------------------
  1                       1.00   0.00  0.00  0.00  0.00  1.00  0.00  0.00  0.38  0.00
  WS02003060WS02003069    1.00   0.00  0.00  0.00  0.97  0.03  0.00  0.00  0.67  0.00
  WS02003066WSF200        1.00   0.06  0.00  0.00  0.00  0.94  0.00  0.00  0.86  0.00
  WS02003067WS02003066    1.00   0.03  0.03  0.00  0.94  0.00  0.00  0.00  0.00  0.00
  WS02003069WS02003072    1.00   0.00  0.00  0.00  1.00  0.00  0.00  0.00  0.69  0.00
  WS02003072WS02003073    1.00   0.00  0.00  0.00  0.00  0.00  0.00  1.00  0.00  0.00
  WS02004401WS02004402    1.00   0.00  0.00  0.00  1.00  0.00  0.00  0.00  0.00  0.00
  WS02004402WS02004403    1.00   0.00  0.00  0.00  1.00  0.00  0.00  0.00  0.00  0.00
  WS02004403WS02004404    1.00   0.00  0.00  0.00  1.00  0.00  0.00  0.00  0.00  0.00
  WS02004404WS02004405    1.00   0.00  0.00  0.00  1.00  0.00  0.00  0.00  0.01  0.00
  WS02004405WS02004406    1.00   0.00  0.00  0.00  1.00  0.00  0.00  0.00  0.00  0.00
  WS02004406WS02004407    1.00   0.00  0.00  0.00  1.00  0.00  0.00  0.00  0.00  0.00
  WS02004407WS02004409    1.00   0.00  0.00  0.00  0.98  0.01  0.00  0.00  0.99  0.00
  WS02004409WS02004410    1.00   0.00  0.00  0.00  1.00  0.00  0.00  0.00  0.00  0.00
  WS02004410WS02004411    1.00   0.00  0.00  0.00  0.99  0.00  0.00  0.00  0.00  0.00
  WS02004411WS02004412    1.00   0.00  0.00  0.00  0.99  0.00  0.00  0.00  0.00  0.00
  WS02004412WS02004413    1.00   0.01  0.00  0.00  0.99  0.01  0.00  0.00  0.00  0.00
  WS02004413WS02003067    1.00   0.01  0.02  0.00  0.00  0.00  0.97  0.00  0.00  0.00
  WS02006109WS02006110    1.00   0.00  0.00  0.00  1.00  0.00  0.00  0.00  0.00  0.00
  WS02006110WS02006113    1.00   0.00  0.00  0.00  1.00  0.00  0.00  0.00  0.00  0.00
  WS02006111WS02006112    1.00   0.00  0.00  0.00  1.00  0.00  0.00  0.00  1.00  0.00
  WS02006112WS02006115    1.00   0.00  0.00  0.00  1.00  0.00  0.00  0.00  0.00  0.00
  WS02006113WS02006111    1.00   0.00  0.00  0.00  0.00  1.00  0.00  0.00  0.13  0.00
  WS02006115WS02006116    1.00   0.00  0.00  0.00  1.00  0.00  0.00  0.00  0.00  0.00
  WS02006116WS02004401    1.00   0.00  0.00  0.00  1.00  0.00  0.00  0.00  0.00  0.00
  WS02006228WS02006109    1.00   0.00  0.00  0.00  1.00  0.00  0.00  0.00  0.00  0.00
  WS02006229WS02006228    1.00   0.00  0.00  0.00  1.00  0.00  0.00  0.00  0.00  0.00
  WS02006230WS02006229    1.00   0.00  0.00  0.00  1.00  0.00  0.00  0.00  0.02  0.00
  WS02006231WS02006230    1.00   0.00  0.00  0.00  0.49  0.00  0.51  0.00  0.00  0.00
  WS02006232WS02006231    1.00   0.00  0.00  0.00  0.99  0.00  0.01  0.00  0.00  0.00
  WS02006234WS02006232    1.00   0.00  0.00  0.00  1.00  0.00  0.00  0.00  0.03  0.00
  WS02006235WS02006234    1.00   0.00  0.00  0.00  0.95  0.00  0.05  0.00  0.00  0.00
  WS02006238WS02006235    1.00   0.00  0.00  0.00  1.00  0.00  0.00  0.00  0.00  0.00
  WS02006239WS02006238    1.00   0.00  0.00  0.00  1.00  0.00  0.00  0.00  0.16  0.00
  WS02006240WS02006239    1.00   0.00  0.00  0.00  0.83  0.00  0.00  0.17  0.05  0.00
  WS02006242WS02006240    1.00   0.00  0.00  0.00  0.99  0.00  0.01  0.00  0.00  0.00
  WS02006243WS02006242    1.00   0.00  0.00  0.00  0.99  0.00  0.00  0.01  0.58  0.00
  WS02006245WS02006243    1.00   0.00  0.00  0.00  0.91  0.00  0.00  0.09  0.00  0.00
  WS02006247WS02006245    1.00   0.00  0.00  0.00  0.98  0.00  0.00  0.02  0.00  0.00
  WS02006248WS02006247    1.00   0.00  0.00  0.00  0.99  0.00  0.00  0.01  0.53  0.00
  WS02006249WS02006248    1.00   0.00  0.00  0.00  0.69  0.00  0.31  0.00  0.00  0.00
  WS02006251WS02006249    1.00   0.00  0.00  0.00  1.00  0.00  0.00  0.00  0.53  0.00
  WS02006252WS02006251    1.00   0.00  0.30  0.00  0.19  0.00  0.51  0.00  0.00  0.00
  WS02006256WS02006235    1.00   0.00  0.00  0.00  0.99  0.01  0.00  0.00  0.00  0.00
  WSF200WS02003060        1.00   0.00  0.06  0.00  0.24  0.70  0.00  0.00  0.61  0.00
  YS02001580YS02001583    1.00   0.27  0.31  0.00  0.42  0.00  0.00  0.00  0.61  0.00
  YS02001583YS02001586    1.00   0.25  0.26  0.00  0.48  0.00  0.01  0.00  0.62  0.00
  YS02001586YS02001590    1.00   0.13  0.00  0.00  0.68  0.02  0.00  0.17  0.32  0.00
  YS02001590YS02001593    1.00   0.13  0.00  0.00  0.38  0.00  0.48  0.00  0.00  0.00
  YS02001593YS02001596    1.00   0.13  0.00  0.00  0.45  0.00  0.00  0.41  0.04  0.00
  YS02001596YS02001600    1.00   0.13  0.00  0.00  0.49  0.01  0.00  0.36  0.03  0.00
  YS02001600YS02001601    1.00   0.13  0.00  0.00  0.87  0.00  0.00  0.00  0.54  0.00
  YS02001601YS02001602    1.00   0.13  0.00  0.00  0.87  0.00  0.00  0.00  0.00  0.00
  YS02001602YS02001605    1.00   0.13  0.00  0.00  0.87  0.00  0.00  0.00  0.00  0.00
  YS02001605YS02001607    1.00   0.13  0.00  0.00  0.87  0.00  0.00  0.00  0.00  0.00
  YS02001607YS02001610    1.00   0.13  0.00  0.00  0.87  0.00  0.00  0.00  0.00  0.00
  YS02001610YS02001613    1.00   0.13  0.00  0.00  0.87  0.00  0.00  0.00  0.00  0.00
  YS02001613YS02001616    1.00   0.13  0.00  0.00  0.87  0.00  0.00  0.00  0.00  0.00
  YS02001616YS02001619    1.00   0.13  0.00  0.00  0.87  0.00  0.00  0.00  0.00  0.00
  YS02001619YS02001622    1.00   0.13  0.00  0.00  0.86  0.01  0.00  0.00  0.26  0.00
  YS02001622YS02001625    1.00   0.13  0.00  0.00  0.86  0.00  0.00  0.00  0.01  0.00
  YS02001625YS02001629    1.00   0.13  0.01  0.00  0.46  0.00  0.39  0.00  0.00  0.00
  YS02001629YS02163301    1.00   0.13  0.00  0.00  0.86  0.00  0.00  0.00  0.00  0.00
  YS02001633YS02163601    1.00   0.00  0.01  0.00  0.99  0.00  0.00  0.00  0.13  0.00
  YS02001641YS02001644    1.00   0.00  0.00  0.00  1.00  0.00  0.00  0.00  0.00  0.00
  YS02001644YS02001647    1.00   0.00  0.14  0.00  0.86  0.00  0.00  0.00  0.00  0.00
  YS02001647YS02001649    1.00   0.00  0.14  0.00  0.59  0.27  0.00  0.00  0.54  0.00
  YS02001649YS02001757    1.00   0.00  0.00  0.00  0.71  0.29  0.00  0.00  0.40  0.00
  YS02001652YS02001649    1.00   0.00  0.00  0.00  0.99  0.01  0.00  0.00  0.68  0.00
  YS02001655YS02001652    1.00   0.00  0.00  0.00  0.48  0.01  0.00  0.51  0.08  0.00
  YS02001658YS02001655    1.00   0.00  0.13  0.00  0.55  0.32  0.00  0.00  0.66  0.00
  YS02001661YS02001658    1.00   0.13  0.00  0.00  0.34  0.53  0.00  0.00  0.80  0.00
  YS02001664YS02001661    1.00   0.13  0.00  0.00  0.40  0.47  0.00  0.00  0.87  0.00
  YS02001745YS02001748    1.00   0.00  0.00  0.00  0.16  0.01  0.00  0.83  0.11  0.00
  YS02001748YS02001751    1.00   0.00  0.00  0.00  0.66  0.34  0.00  0.00  0.81  0.00
  YS02001751YS02001754    1.00   0.00  0.00  0.00  0.38  0.05  0.00  0.57  0.10  0.00
  YS02001754YS02001757    1.00   0.00  0.00  0.00  1.00  0.00  0.00  0.00  0.72  0.00
  YS02001757CaochengTiaoxuchi    1.00   0.00  0.00  0.00  0.84  0.16  0.00  0.00  0.71  0.00
  YS02001759YS02001757    1.00   0.00  0.00  0.00  1.00  0.00  0.00  0.00  0.60  0.00
  YS02001762YS02001759    1.00   0.00  0.00  0.00  1.00  0.00  0.00  0.00  0.02  0.00
  YS02001765YS02001762    1.00   0.00  0.00  0.00  1.00  0.00  0.00  0.00  0.67  0.00
  YS02001767YS02001765    1.00   0.00  0.00  0.00  1.00  0.00  0.00  0.00  0.00  0.00
  YS02001770YS02001767    1.00   0.00  0.00  0.00  1.00  0.00  0.00  0.00  0.00  0.00
  YS02001774YS02001770    1.00   0.00  0.13  0.00  0.80  0.00  0.07  0.00  0.00  0.00
  YS02001779YS02001774    1.00   0.00  0.00  0.00  1.00  0.00  0.00  0.00  0.70  0.00
  YS02001783YS02001784    1.00   0.00  0.14  0.00  0.86  0.00  0.00  0.00  0.53  0.00
  YS02001784YS02001785    1.00   0.00  0.00  0.00  1.00  0.00  0.00  0.00  0.13  0.00
  YS02001786YS02001788    1.00   0.00  0.00  0.00  0.46  0.54  0.00  0.00  0.00  0.00
  YS02001788YS02001790    1.00   0.00  0.00  0.00  0.15  0.85  0.00  0.00  0.74  0.00
  YS02001790YS02001791    1.00   0.00  0.00  0.00  0.02  0.98  0.00  0.00  0.20  0.00
  YS02001791YS02001793    1.00   0.00  0.00  0.00  0.00  1.00  0.00  0.00  0.00  0.00
  YS02001793JiankangQianchi    1.00   0.00  0.00  0.00  1.00  0.00  0.00  0.00  1.00  0.00
  YS02001882YS02001884    1.00   0.14  0.00  0.00  0.86  0.00  0.00  0.00  0.00  0.00
  YS02001884YS02001887    1.00   0.10  0.03  0.00  0.87  0.00  0.00  0.00  0.00  0.00
  YS02001887YS02001890    1.00   0.00  0.00  0.00  0.92  0.00  0.08  0.00  0.00  0.00
  YS02001890YS02001895    1.00   0.00  0.13  0.00  0.86  0.00  0.00  0.00  0.00  0.00
  YS02001895YS02001898    1.00   0.14  0.00  0.00  0.85  0.00  0.01  0.00  0.00  0.00
  YS02001898YS02001901    1.00   0.14  0.00  0.00  0.86  0.00  0.00  0.00  0.00  0.00
  YS02001901YS02001904    1.00   0.14  0.00  0.00  0.86  0.00  0.00  0.00  0.00  0.00
  YS02001904YS02001907    1.00   0.00  0.14  0.00  0.86  0.00  0.00  0.00  0.00  0.00
  YS02001907YS02006553    1.00   0.00  0.05  0.00  0.95  0.00  0.00  0.00  0.00  0.00
  YS02001910YS02001907    1.00   0.00  0.00  0.00  0.93  0.01  0.00  0.06  0.10  0.00
  YS02001915YS02001910    1.00   0.00  0.00  0.00  0.95  0.05  0.00  0.00  0.11  0.00
  YS02001918YS02001915    1.00   0.00  0.00  0.00  0.95  0.05  0.00  0.00  0.64  0.00
  YS02001920YS02001918    1.00   0.00  0.00  0.00  1.00  0.00  0.00  0.00  0.01  0.00
  YS02001923YS02001920    1.00   0.00  0.00  0.00  1.00  0.00  0.00  0.00  0.94  0.00
  YS02001926YS02001923    1.00   0.00  0.11  0.00  0.00  0.00  0.89  0.00  0.00  0.00
  YS02001929YS02001926    1.00   0.00  0.13  0.00  0.87  0.00  0.00  0.00  0.87  0.00
  YS02006553YS02006556    1.00   0.01  0.00  0.00  0.99  0.00  0.00  0.00  0.03  0.00
  YS02006556YS02006558    1.00   0.00  0.00  0.00  1.00  0.00  0.00  0.00  0.00  0.00
  YS02006558YS02006561    1.00   0.14  0.00  0.00  0.00  0.86  0.00  0.00  0.14  0.00
  YS02006561YS02001783    1.00   0.14  0.00  0.00  0.22  0.64  0.00  0.00  0.61  0.00
  YS02163301YS02001633    1.00   0.00  0.13  0.00  0.87  0.00  0.00  0.00  0.00  0.00
  YS02163601YS02164001    1.00   0.00  0.11  0.00  0.89  0.00  0.00  0.00  0.00  0.00
  YS02164001YS02001641    1.00   0.01  0.11  0.00  0.89  0.00  0.00  0.00  0.05  0.00
  
  
  *************************
  Conduit Surcharge Summary
  *************************
  
  ----------------------------------------------------------------------------
                                                           Hours        Hours 
                         --------- Hours Full --------   Above Full   Capacity
  Conduit                Both Ends  Upstream  Dnstream   Normal Flow   Limited
  ----------------------------------------------------------------------------
  WS02003072WS02003073        0.01      0.01      0.01      1.23         0.01
  WS02004401WS02004402        0.01      0.01      0.01      0.01         0.01
  WS02004402WS02004403        0.01      0.01      0.01      0.01         0.01
  WS02004403WS02004404        0.01      0.01      0.01      0.01         0.01
  WS02004404WS02004405        0.01      0.01      0.01      3.31         0.01
  WS02004405WS02004406        0.01      0.01      0.01      0.60         0.01
  WS02006109WS02006110        0.70      0.71      2.37      0.79         0.01
  WS02006110WS02006113        0.01      0.01      2.34      0.01         0.01
  WS02006111WS02006112        0.01      0.01      2.63      0.01         0.01
  WS02006112WS02006115        0.01      0.01      0.84      0.01         0.01
  WS02006113WS02006111        0.01      0.01      0.01      0.01         0.01
  WS02006115WS02006116        0.01      0.01      0.01      0.01         0.01
  WS02006116WS02004401        0.01      0.01      0.01      0.01         0.01
  WS02006228WS02006109        2.31      2.37      2.31      2.85         2.31
  WS02006229WS02006228        2.30      2.30      2.30      2.54         2.29
  WS02006230WS02006229        2.40      2.48      2.40      3.62         2.40
  WS02006231WS02006230        0.72      0.72      0.89      3.24         0.01
  WS02006232WS02006231        0.84      0.84      2.38      0.93         0.01
  WS02006234WS02006232        2.27      2.27      2.38      0.89         0.89
  WS02006235WS02006234        1.29      1.29      2.28      3.14         0.02
  WS02006238WS02006235        2.30      2.30      2.37      0.01         0.01
  WS02006239WS02006238        2.30      2.32      2.32      2.13         1.93
  WS02006240WS02006239        2.27      2.29      2.28      2.12         1.88
  WS02006242WS02006240        2.28      2.28      2.33      2.33         0.01
  WS02006243WS02006242        2.18      2.18      2.29      0.01         0.04
  WS02006245WS02006243        2.11      2.11      2.16      1.43         1.32
  WS02006247WS02006245        2.10      2.11      2.10      2.89         2.07
  WS02006248WS02006247        2.08      2.08      2.10      0.01         0.05
  WS02006249WS02006248        2.06      2.07      2.07      2.84         0.01
  WS02006251WS02006249        2.06      2.07      2.07      2.31         1.97
  WS02006252WS02006251        2.41      2.42      2.46      2.42         0.01
  WS02006256WS02006235        3.10      3.18      6.47      1.45         0.02
  YS02001580YS02001583        0.17      0.17      0.59      0.01         0.01
  YS02001583YS02001586        0.19      0.19      1.38      0.01         0.01
  YS02001586YS02001590        1.39      1.39      1.45      0.01         0.01
  YS02001590YS02001593        1.45      1.45      1.47      1.44         0.01
  YS02001593YS02001596        1.46      1.46      1.65      0.01         0.01
  YS02001596YS02001600        1.76      1.76      1.98      0.01         0.01
  YS02001600YS02001601        2.02      2.02      2.17      0.01         0.01
  YS02001601YS02001602        2.11      2.11      2.19      2.01         0.01
  YS02001602YS02001605        2.08      2.08      2.11      2.71         0.01
  YS02001605YS02001607        2.05      2.08      2.05      2.14         2.05
  YS02001607YS02001610        1.42      1.42      1.44      0.01         0.01
  YS02001610YS02001613        1.42      1.42      1.44      0.01         0.01
  YS02001613YS02001616        1.35      1.35      1.42      0.01         0.01
  YS02001616YS02001619        1.23      1.23      1.35      0.01         0.01
  YS02001619YS02001622        1.16      1.23      1.16      1.47         1.15
  YS02001622YS02001625        1.16      1.16      1.52      0.01         0.01
  YS02001625YS02001629        0.78      0.78      1.52      0.01         0.01
  YS02001629YS02163301        1.51      1.51      1.52      0.80         0.91
  YS02001633YS02163601        1.53      1.53      1.56      1.37         1.36
  YS02001641YS02001644        1.44      1.47      1.44      2.20         1.44
  YS02001644YS02001647        0.75      0.75      1.44      0.01         0.01
  YS02001647YS02001649        0.75      0.75      0.83      0.01         0.01
  YS02001649YS02001757        0.83      0.83      0.88      0.01         0.01
  YS02001652YS02001649        0.28      0.28      0.83      0.01         0.01
  YS02001655YS02001652        0.01      0.01      0.16      0.01         0.01
  YS02001754YS02001757        0.01      0.01      0.88      0.01         0.01
  YS02001757CaochengTiaoxuchi        0.88      0.88      1.74      0.01         0.01
  YS02001759YS02001757        0.80      0.80      0.88      0.01         0.01
  YS02001762YS02001759        0.77      0.77      0.80      0.01         0.01
  YS02001765YS02001762        0.74      0.74      0.77      0.01         0.01
  YS02001767YS02001765        0.71      0.71      0.74      0.01         0.01
  YS02001770YS02001767        0.71      0.71      0.71      0.30         0.23
  YS02001774YS02001770        0.21      0.21      0.76      0.01         0.01
  YS02001779YS02001774        0.01      0.01      0.76      0.01         0.01
  YS02001783YS02001784        0.01      0.01      0.01      0.96         0.01
  YS02001784YS02001785        0.01      0.01      0.01      1.90         0.01
  YS02001786YS02001788        0.01      0.01      0.01      1.62         0.01
  YS02001793JiankangQianchi        0.01      0.01      6.16      0.01         0.01
  YS02001890YS02001895        0.01      0.01      0.09      0.01         0.01
  YS02001904YS02001907        0.01      0.01      1.59      0.01         0.01
  YS02001907YS02006553        1.90      1.90      1.94      0.01         0.01
  YS02001910YS02001907        0.11      0.11      1.54      0.01         0.01
  YS02001915YS02001910        0.01      0.01      0.11      0.01         0.01
  YS02006553YS02006556        0.75      0.75      1.58      0.01         0.01
  YS02006556YS02006558        1.30      1.30      1.61      0.01         0.01
  YS02006558YS02006561        0.01      0.65      0.01      1.77         0.01
  YS02163301YS02001633        1.52      1.52      1.55      0.01         0.01
  YS02163601YS02164001        1.48      1.48      1.56      0.13         0.01
  YS02164001YS02001641        1.47      1.48      1.47      1.69         1.47
  
  
  ***************
  Pumping Summary
  ***************
  
  ---------------------------------------------------------------------------------------------------------
                                                  Min       Avg       Max     Total     Power    % Time Off
                        Percent   Number of      Flow      Flow      Flow    Volume     Usage    Pump Curve
  Pump                 Utilized   Start-Ups       LPS       LPS       LPS  10^6 ltr     Kw-hr    Low   High
  ---------------------------------------------------------------------------------------------------------
  CC-R1                   27.82          56      0.00    683.00    683.00     5.472     99.53    0.0   28.2
  CC-R2                   28.95          66      0.00    683.00    683.00     5.694    102.19    0.0   42.3
  CC-S1                   32.16          60      0.00    200.00    200.00     1.852     11.12    0.0    0.0
  CC-S2                   35.36          58      0.00    200.00    200.00     2.037     12.45    0.0    0.0
  JK-R1                    7.25         105      0.00   1000.00   1000.00     2.087     16.11    0.0    0.0
  JK-R2                    6.35         107      0.00   1000.00   1000.00     1.829     11.55    0.0    0.0
  JK-S                    17.63          68      0.00    300.00    300.00     1.523     27.94    0.0    0.0
  

  Analysis begun on:  Wed Aug  9 16:56:54 2023
  Analysis ended on:  Wed Aug  9 16:57:33 2023
  Total elapsed time: 00:00:39