
  OWA STORM WATER MANAGEMENT MODEL - VERSION v5.1.14 (OWA 2022-07-31)
  --------------------------------------------------------------

  WARNING 04: minimum elevation drop used for Conduit WS02004404WS02004405
  WARNING 03: negative offset ignored for Link YS02001904YS02001907
  
  *********************************************************
  NOTE: The summary statistics displayed in this report are
  based on results found at every computational time step,  
  not just on results from each reporting time step.
  *********************************************************
  
  ****************
  Analysis Options
  ****************
  Flow Units ............... LPS
  Process Models:
    Rainfall/Runoff ........ YES
    RDII ................... NO
    Snowmelt ............... NO
    Groundwater ............ NO
    Flow Routing ........... YES
    Ponding Allowed ........ NO
    Water Quality .......... NO
  Infiltration Method ...... HORTON
  Flow Routing Method ...... DYNWAVE
  Surcharge Method ......... EXTRAN
  Starting Date ............ 08/28/2015 08:00:00
  Ending Date .............. 08/28/2015 16:00:00
  Antecedent Dry Days ...... 8.0
  Report Time Step ......... 00:01:00
  Wet Time Step ............ 00:01:00
  Dry Time Step ............ 00:01:00
  Routing Time Step ........ 30.00 sec
  Variable Time Step ....... YES
  Maximum Trials ........... 8
  Number of Threads ........ 4
  Head Tolerance ........... 0.001500 m
  
  
  **************************        Volume         Depth
  Runoff Quantity Continuity     hectare-m            mm
  **************************     ---------       -------
  Total Precipitation ......         2.107        63.518
  Evaporation Loss .........         0.000         0.000
  Infiltration Loss ........         0.106         3.210
  Surface Runoff ...........         1.968        59.320
  Final Storage ............         0.033         0.999
  Continuity Error (%) .....        -0.017
  
  
  **************************        Volume        Volume
  Flow Routing Continuity        hectare-m      10^6 ltr
  **************************     ---------     ---------
  Dry Weather Inflow .......         0.000         0.000
  Wet Weather Inflow .......         1.967        19.674
  Groundwater Inflow .......         0.000         0.000
  RDII Inflow ..............         0.000         0.000
  External Inflow ..........         0.083         0.834
  External Outflow .........         2.093        20.927
  Flooding Loss ............         0.053         0.531
  Evaporation Loss .........         0.000         0.000
  Exfiltration Loss ........         0.000         0.000
  Initial Stored Volume ....         0.243         2.431
  Final Stored Volume ......         0.181         1.811
  Continuity Error (%) .....        -1.438
  
  
  *************************
  Highest Continuity Errors
  *************************
  Node YS02001583 (-2.72%)
  Node YS02001884 (2.53%)
  Node YS02001774 (1.90%)
  
  
  ***************************
  Time-Step Critical Elements
  ***************************
  Link WS02006252WS02006251 (70.11%)
  Link YS02001791YS02001793 (6.47%)
  Link WS02006235WS02006234 (6.02%)
  Link YS02006556YS02006558 (4.58%)
  Link WS02006238WS02006235 (3.54%)
  
  
  ********************************
  Highest Flow Instability Indexes
  ********************************
  Link WS02006113WS02006111 (58)
  Link WS02006111WS02006112 (33)
  Link WS02006256WS02006235 (15)
  Link YS02001790YS02001791 (14)
  Link WS02006110WS02006113 (12)
  
  
  *************************
  Routing Time Step Summary
  *************************
  Minimum Time Step           :     0.01 sec
  Average Time Step           :     1.21 sec
  Maximum Time Step           :    30.00 sec
  Percent in Steady State     :    -0.00
  Average Iterations per Step :     2.57
  Percent Not Converging      :     5.17
  
  
  ***************************
  Subcatchment Runoff Summary
  ***************************
  
  ------------------------------------------------------------------------------------------------------------------------------
                            Total      Total      Total      Total     Imperv       Perv      Total       Total     Peak  Runoff
                           Precip      Runon       Evap      Infil     Runoff     Runoff     Runoff      Runoff   Runoff   Coeff
  Subcatchment                 mm         mm         mm         mm         mm         mm         mm    10^6 ltr      LPS
  ------------------------------------------------------------------------------------------------------------------------------
  sub60                     63.52       0.00       0.00       1.94      54.69       5.68      60.37        0.79   147.31   0.951
  sub61                     63.52       0.00       0.00       2.82      51.59       7.98      59.57        1.09   203.55   0.938
  sub62                     63.52       0.00       0.00       1.29      57.15       3.79      60.94        1.67   294.43   0.959
  sub63                     63.52       0.00       0.00       5.20      44.13      13.22      57.35        1.30   230.65   0.903
  sub64                     63.52       0.00       0.00       2.63      52.78       6.90      59.67        1.43   242.95   0.939
  sub65                     63.52       0.00       0.00       2.28      54.00       5.98      59.98        1.65   274.87   0.944
  sub66                     63.52       0.00       0.00       6.32      44.01      12.10      56.11        2.62   428.40   0.883
  sub67                     63.52       0.00       0.00       1.23      57.19       3.85      61.04        1.14   219.03   0.961
  sub68                     63.52       0.00       0.00       2.34      53.44       6.56      59.99        1.65   297.93   0.945
  sub69                     63.52       0.00       0.00       2.12      53.87       7.41      61.28        2.27   368.39   0.965
  sub70                     63.52       0.00       0.00       6.80      41.75      14.79      56.54        1.63   254.72   0.890
  sub71                     63.52       0.00       0.00       1.33      57.10       3.75      60.85        1.59   266.49   0.958
  sub72                     63.52       0.00       0.00       1.18      57.66       3.26      60.92        0.84   136.65   0.959
  
  
  ******************
  Node Depth Summary
  ******************
  
  ---------------------------------------------------------------------------------
                                 Average  Maximum  Maximum  Time of Max    Reported
                                   Depth    Depth      HGL   Occurrence   Max Depth
  Node                 Type       Meters   Meters   Meters  days hr:min      Meters
  ---------------------------------------------------------------------------------
  WS02003060           JUNCTION     0.24     0.33     5.27     0  03:05        0.33
  WS02003066           JUNCTION     0.21     0.27     5.82     0  02:54        0.27
  WS02003067           JUNCTION     0.53     0.65     5.97     0  03:04        0.65
  WS02003069           JUNCTION     0.27     0.37     4.96     0  02:55        0.37
  WS02003072           JUNCTION     0.34     0.44     4.82     0  02:55        0.44
  WS02003073           JUNCTION     0.19     0.26     4.33     0  02:56        0.26
  WS02004401           JUNCTION     0.61     0.75     6.75     0  00:00        0.75
  WS02004402           JUNCTION     0.64     0.78     6.74     0  02:51        0.78
  WS02004403           JUNCTION     0.67     0.80     6.73     0  02:51        0.80
  WS02004404           JUNCTION     0.74     0.88     6.73     0  02:51        0.88
  WS02004405           JUNCTION     0.74     0.87     6.72     0  02:51        0.87
  WS02004406           JUNCTION     0.75     0.88     6.71     0  02:51        0.88
  WS02004407           JUNCTION     0.19     0.26     6.57     0  02:52        0.26
  WS02004409           JUNCTION     0.41     0.57     6.34     0  02:52        0.57
  WS02004410           JUNCTION     0.44     0.59     6.31     0  02:52        0.59
  WS02004411           JUNCTION     0.46     0.61     6.29     0  02:53        0.61
  WS02004412           JUNCTION     0.48     0.62     6.26     0  02:53        0.62
  WS02004413           JUNCTION     0.65     0.78     6.25     0  02:53        0.78
  WS02006109           JUNCTION     0.66     1.24     7.85     0  00:00        0.83
  WS02006110           JUNCTION     0.67     1.45     8.04     0  00:00        0.82
  WS02006111           JUNCTION     0.19     1.67     8.37     0  00:00        0.54
  WS02006112           JUNCTION     0.77     2.68     8.56     0  00:00        1.21
  WS02006113           JUNCTION     0.28     1.50     8.40     0  00:00        0.39
  WS02006115           JUNCTION     0.49     1.69     7.83     0  00:00        0.86
  WS02006116           JUNCTION     0.58     1.11     7.15     0  00:00        0.81
  WS02006228           JUNCTION     0.65     1.64     8.29     0  00:00        0.84
  WS02006229           JUNCTION     0.62     1.31     8.00     0  00:00        0.82
  WS02006230           JUNCTION     0.60     0.89     7.64     0  00:01        0.86
  WS02006231           JUNCTION     0.42     0.63     7.75     0  00:05        0.61
  WS02006232           JUNCTION     0.55     1.44     8.48     0  00:04        0.75
  WS02006234           JUNCTION     0.46     0.83     7.99     0  00:05        0.74
  WS02006235           JUNCTION     0.50     0.90     8.06     0  00:05        0.78
  WS02006238           JUNCTION     0.53     0.92     8.07     0  00:05        0.80
  WS02006239           JUNCTION     0.50     0.93     8.14     0  00:05        0.80
  WS02006240           JUNCTION     0.47     0.95     8.25     0  00:05        0.78
  WS02006242           JUNCTION     0.55     0.99     8.25     0  00:05        0.90
  WS02006243           JUNCTION     0.45     0.97     8.39     0  00:05        0.84
  WS02006245           JUNCTION     0.45     0.85     8.34     0  02:45        0.85
  WS02006247           JUNCTION     0.49     0.89     8.39     0  02:41        0.88
  WS02006248           JUNCTION     0.44     0.85     8.44     0  02:56        0.85
  WS02006249           JUNCTION     0.48     0.91     8.50     0  02:29        0.91
  WS02006251           JUNCTION     0.48     1.48     9.15     0  00:00        0.91
  WS02006252           JUNCTION     0.38     1.50     9.74     0  01:32        0.59
  WS02006256           JUNCTION     0.73     2.35     9.28     0  00:00        2.35
  WSF200               JUNCTION     0.18     0.25     5.48     0  03:05        0.25
  YS02001580           JUNCTION     0.08     1.05     9.59     0  01:41        0.62
  YS02001583           JUNCTION     0.11     1.14     9.64     0  01:41        0.66
  YS02001586           JUNCTION     0.17     1.13     9.30     0  01:41        0.99
  YS02001590           JUNCTION     0.27     1.39     9.25     0  01:41        1.31
  YS02001593           JUNCTION     0.21     1.32     9.18     0  01:41        1.32
  YS02001596           JUNCTION     0.31     1.69     9.11     0  01:53        1.69
  YS02001600           JUNCTION     0.38     1.87     9.00     0  01:41        1.87
  YS02001601           JUNCTION     0.55     2.06     8.90     0  01:40        2.06
  YS02001602           JUNCTION     0.46     1.87     8.77     0  01:42        1.87
  YS02001605           JUNCTION     0.42     1.77     8.68     0  02:55        1.77
  YS02001607           JUNCTION     0.40     1.64     8.48     0  02:23        1.62
  YS02001610           JUNCTION     0.44     1.68     8.48     0  02:23        1.67
  YS02001613           JUNCTION     0.40     1.64     8.48     0  02:23        1.62
  YS02001616           JUNCTION     0.33     1.56     8.47     0  02:23        1.54
  YS02001619           JUNCTION     0.31     1.54     8.47     0  02:23        1.51
  YS02001622           JUNCTION     0.30     1.53     8.43     0  02:23        1.50
  YS02001625           JUNCTION     0.55     1.77     8.38     0  02:23        1.75
  YS02001629           JUNCTION     0.41     1.78     8.33     0  02:44        1.76
  YS02001633           JUNCTION     0.48     1.81     8.26     0  02:23        1.79
  YS02001641           JUNCTION     0.45     1.62     8.06     0  02:23        1.61
  YS02001644           JUNCTION     0.45     1.56     7.99     0  02:25        1.55
  YS02001647           JUNCTION     0.25     1.28     7.89     0  02:25        1.28
  YS02001649           JUNCTION     0.28     1.41     7.80     0  02:25        1.41
  YS02001652           JUNCTION     0.19     1.23     7.82     0  02:25        1.23
  YS02001655           JUNCTION     0.13     0.99     7.84     0  02:25        0.99
  YS02001658           JUNCTION     0.09     0.65     7.80     0  02:24        0.63
  YS02001661           JUNCTION     0.11     0.37     7.77     0  02:25        0.34
  YS02001664           JUNCTION     0.05     0.18     8.11     0  01:41        0.18
  YS02001745           JUNCTION     0.04     0.16     7.68     0  01:41        0.16
  YS02001748           JUNCTION     0.08     0.58     7.66     0  02:25        0.57
  YS02001751           JUNCTION     0.11     0.78     7.66     0  02:24        0.78
  YS02001754           JUNCTION     0.16     1.04     7.65     0  02:25        1.04
  YS02001757           JUNCTION     0.31     1.41     7.67     0  02:25        1.40
  YS02001759           JUNCTION     0.25     1.31     7.67     0  02:25        1.31
  YS02001762           JUNCTION     0.24     1.27     7.67     0  02:23        1.27
  YS02001765           JUNCTION     0.22     1.23     7.68     0  02:22        1.22
  YS02001767           JUNCTION     0.21     1.19     7.68     0  02:22        1.18
  YS02001770           JUNCTION     0.23     1.19     7.68     0  02:22        1.18
  YS02001774           JUNCTION     0.29     1.26     7.69     0  02:24        1.26
  YS02001779           JUNCTION     0.14     1.00     7.69     0  02:25        0.99
  YS02001783           JUNCTION     0.18     0.76     6.90     0  02:24        0.76
  YS02001784           JUNCTION     0.19     0.75     6.82     0  02:24        0.75
  YS02001786           JUNCTION     0.17     0.61     6.64     0  02:25        0.61
  YS02001788           JUNCTION     0.12     0.49     6.46     0  02:25        0.49
  YS02001790           JUNCTION     0.15     0.58     6.22     0  02:26        0.58
  YS02001791           JUNCTION     0.09     0.35     5.82     0  02:27        0.35
  YS02001793           JUNCTION     0.05     0.18     5.01     0  02:27        0.17
  YS02001882           JUNCTION     0.22     0.80     7.52     0  02:24        0.80
  YS02001884           JUNCTION     0.31     0.90     7.52     0  02:24        0.90
  YS02001887           JUNCTION     0.38     0.98     7.52     0  02:24        0.98
  YS02001890           JUNCTION     0.41     1.01     7.52     0  02:25        1.01
  YS02001895           JUNCTION     0.19     0.77     7.51     0  02:24        0.77
  YS02001898           JUNCTION     0.20     0.78     7.51     0  02:24        0.77
  YS02001901           JUNCTION     0.31     0.91     7.51     0  02:24        0.90
  YS02001904           JUNCTION     0.29     0.88     7.51     0  02:24        0.88
  YS02001907           JUNCTION     0.59     1.23     7.52     0  01:44        1.22
  YS02001910           JUNCTION     0.40     1.07     7.58     0  01:43        1.01
  YS02001915           JUNCTION     0.22     0.80     7.52     0  02:24        0.80
  YS02001918           JUNCTION     0.08     0.46     7.52     0  02:24        0.46
  YS02001920           JUNCTION     0.14     0.52     7.53     0  02:25        0.52
  YS02001923           JUNCTION     0.05     0.26     7.52     0  02:25        0.25
  YS02001926           JUNCTION     0.11     0.31     7.75     0  02:22        0.31
  YS02001929           JUNCTION     0.05     0.17     7.87     0  02:22        0.17
  YS02006553           JUNCTION     0.59     1.23     7.51     0  01:44        1.21
  YS02006556           JUNCTION     0.57     1.18     7.49     0  01:44        1.17
  YS02006558           JUNCTION     0.60     1.21     7.48     0  01:44        1.20
  YS02006561           JUNCTION     0.11     0.40     7.06     0  02:24        0.40
  YS02163301           JUNCTION     0.43     1.78     8.30     0  02:23        1.76
  YS02163601           JUNCTION     0.51     1.76     8.16     0  02:23        1.75
  YS02164001           JUNCTION     0.44     1.65     8.10     0  02:23        1.64
  CC-1                 OUTFALL      0.00     0.00     0.00     0  00:00        0.00
  CC-2                 OUTFALL      0.00     0.00     0.00     0  00:00        0.00
  JK-1                 OUTFALL      0.00     0.00     0.00     0  00:00        0.00
  JK-2                 OUTFALL      0.00     0.00     0.00     0  00:00        0.00
  WSC                  OUTFALL      0.19     0.26     0.93     0  02:56        0.26
  CC-storage           STORAGE      0.85     1.60     7.10     0  03:01        1.60
  JK-storage           STORAGE      1.21     3.00     3.80     0  00:00        2.87
  
  
  *******************
  Node Inflow Summary
  *******************
  
  -------------------------------------------------------------------------------------------------
                                  Maximum  Maximum                  Lateral       Total        Flow
                                  Lateral    Total  Time of Max      Inflow      Inflow     Balance
                                   Inflow   Inflow   Occurrence      Volume      Volume       Error
  Node                 Type           LPS      LPS  days hr:min    10^6 ltr    10^6 ltr     Percent
  -------------------------------------------------------------------------------------------------
  WS02003060           JUNCTION     16.53   426.99     0  03:05       0.476        7.15       0.032
  WS02003066           JUNCTION      0.00   410.44     0  02:53           0        6.67       0.020
  WS02003067           JUNCTION      0.00   410.44     0  02:53           0        6.67       0.062
  WS02003069           JUNCTION      0.32   427.29     0  02:54     0.00922        7.15       0.053
  WS02003072           JUNCTION      0.00   427.26     0  02:55           0        7.15       0.097
  WS02003073           JUNCTION      1.82   429.07     0  02:55      0.0524        7.19       0.077
  WS02004401           JUNCTION      0.00  1791.60     0  00:00           0        6.78       0.159
  WS02004402           JUNCTION      0.00  1254.90     0  00:01           0        6.77       0.160
  WS02004403           JUNCTION      0.00   919.18     0  00:01           0        6.76       0.156
  WS02004404           JUNCTION      0.00   867.70     0  00:01           0        6.75       0.148
  WS02004405           JUNCTION      0.00   859.04     0  00:01           0        6.74       0.166
  WS02004406           JUNCTION      0.00   734.85     0  00:02           0        6.73       0.321
  WS02004407           JUNCTION      0.00   410.69     0  02:51           0        6.71       0.015
  WS02004409           JUNCTION      0.00   410.62     0  02:52           0        6.71       0.037
  WS02004410           JUNCTION      0.00   410.57     0  02:52           0        6.71       0.066
  WS02004411           JUNCTION      0.00   410.53     0  02:56           0         6.7       0.083
  WS02004412           JUNCTION      0.00   410.51     0  02:41           0         6.7       0.111
  WS02004413           JUNCTION      0.00   410.51     0  03:04           0        6.69       0.202
  WS02006109           JUNCTION      0.00  1446.81     0  00:00           0        6.68      -0.066
  WS02006110           JUNCTION      0.00   435.61     0  00:06           0        6.66      -0.818
  WS02006111           JUNCTION      0.00  1180.41     0  00:00           0        6.71      -0.628
  WS02006112           JUNCTION      0.00  2307.30     0  00:00           0        6.75      -0.001
  WS02006113           JUNCTION      0.00   517.18     0  00:00           0        6.68      -0.567
  WS02006115           JUNCTION      0.00   937.16     0  00:00           0        6.73      -0.525
  WS02006116           JUNCTION      0.00  1254.80     0  00:00           0        6.76      -0.348
  WS02006228           JUNCTION      0.00   869.18     0  00:00           0        6.67      -0.008
  WS02006229           JUNCTION      0.00   471.92     0  00:00           0        6.65      -0.047
  WS02006230           JUNCTION     10.28   687.18     0  00:00       0.296        6.64       0.032
  WS02006231           JUNCTION      0.00   490.75     0  00:05           0        6.33      -0.012
  WS02006232           JUNCTION      0.00   506.05     0  00:05           0        6.33       0.070
  WS02006234           JUNCTION      0.00   549.56     0  00:04           0        6.32      -0.056
  WS02006235           JUNCTION      0.00   565.80     0  00:04           0        6.34       0.092
  WS02006238           JUNCTION      0.00   400.81     0  02:48           0        6.28      -0.044
  WS02006239           JUNCTION      0.00   401.62     0  02:48           0        6.26      -0.054
  WS02006240           JUNCTION      0.00   400.68     0  02:44           0        6.24       0.005
  WS02006242           JUNCTION      0.00   401.39     0  02:40           0        6.24      -0.043
  WS02006243           JUNCTION      0.00   400.64     0  02:23           0        6.24      -0.017
  WS02006245           JUNCTION      0.00   402.05     0  02:32           0        6.24       0.120
  WS02006247           JUNCTION      0.00   400.90     0  02:40           0        6.24       0.016
  WS02006248           JUNCTION      0.00   404.06     0  00:02           0        6.25       0.030
  WS02006249           JUNCTION      0.00   843.88     0  00:00           0        6.25       0.112
  WS02006251           JUNCTION      0.00   478.35     0  00:00           0        6.24      -0.219
  WS02006252           JUNCTION      0.00   400.00     0  00:00           0        6.22      -0.262
  WS02006256           JUNCTION      0.00   300.00     0  00:00           0       0.093      -0.416
  WSF200               JUNCTION      0.00   410.44     0  02:54           0        6.67       0.008
  YS02001580           JUNCTION      0.00    67.09     0  01:41           0     0.00507       0.375
  YS02001583           JUNCTION      0.00    97.81     0  01:41           0      0.0174      -2.650
  YS02001586           JUNCTION    254.72   255.04     0  02:22        1.63        1.65       0.074
  YS02001590           JUNCTION      0.00   255.04     0  02:22           0        1.63      -0.033
  YS02001593           JUNCTION      0.00   255.11     0  02:22           0        1.63      -0.000
  YS02001596           JUNCTION      0.00   255.07     0  02:22           0        1.63      -0.018
  YS02001600           JUNCTION      0.00   255.16     0  02:22           0        1.63       0.018
  YS02001601           JUNCTION    368.39   622.55     0  02:21        2.27         3.9       0.014
  YS02001602           JUNCTION      0.00   495.43     0  01:42           0        3.43       0.012
  YS02001605           JUNCTION      0.00   495.43     0  01:42           0        3.42       0.015
  YS02001607           JUNCTION      0.00   495.41     0  01:42           0        3.41       0.058
  YS02001610           JUNCTION      0.00   495.39     0  01:42           0        3.41       0.078
  YS02001613           JUNCTION      0.00   495.33     0  01:42           0        3.41       0.053
  YS02001616           JUNCTION      0.00   495.24     0  01:42           0        3.42       0.017
  YS02001619           JUNCTION    428.40   866.71     0  01:43        2.62        6.03      -0.002
  YS02001622           JUNCTION      0.00   868.63     0  01:42           0        6.02      -0.002
  YS02001625           JUNCTION      0.00   869.93     0  01:42           0        6.02       0.185
  YS02001629           JUNCTION      0.00   869.94     0  01:42           0        6.02      -0.004
  YS02001633           JUNCTION    274.87  1148.19     0  01:41        1.65        7.67       0.043
  YS02001641           JUNCTION      0.00  1148.56     0  01:41           0        7.67       0.039
  YS02001644           JUNCTION    242.95  1391.65     0  01:41        1.43         9.1       0.038
  YS02001647           JUNCTION      0.00  1392.76     0  01:41           0        9.08       0.006
  YS02001649           JUNCTION      0.00  1590.42     0  01:42           0        10.4       0.005
  YS02001652           JUNCTION      0.00   275.66     0  02:25           0         1.3      -0.247
  YS02001655           JUNCTION      0.00   355.52     0  02:24           0         1.3       0.010
  YS02001658           JUNCTION      0.00   354.11     0  02:26           0         1.3      -0.005
  YS02001661           JUNCTION      0.00   230.55     0  01:41           0         1.3       0.028
  YS02001664           JUNCTION    230.65   230.65     0  01:41         1.3         1.3      -0.009
  YS02001745           JUNCTION    147.31   147.31     0  01:41       0.793       0.793       0.073
  YS02001748           JUNCTION      0.00   147.23     0  01:41           0       0.793      -0.113
  YS02001751           JUNCTION      0.00   179.78     0  02:25           0       0.793       0.176
  YS02001754           JUNCTION      0.00   167.07     0  02:26           0       0.793      -0.232
  YS02001757           JUNCTION      0.00  2113.61     0  02:22           0        13.9       0.016
  YS02001759           JUNCTION    203.55   469.49     0  02:22        1.09        2.76      -0.011
  YS02001762           JUNCTION      0.00   282.82     0  02:22           0        1.67       0.008
  YS02001765           JUNCTION      0.00   284.17     0  02:22           0        1.67       0.020
  YS02001767           JUNCTION      0.00   283.31     0  02:21           0        1.67       0.021
  YS02001770           JUNCTION    294.43   294.43     0  01:41        1.67        1.72      -0.015
  YS02001774           JUNCTION      0.00    66.99     0  01:39           0       0.077       1.941
  YS02001779           JUNCTION      0.00    49.20     0  01:41           0      0.0245       0.016
  YS02001783           JUNCTION      0.00   837.10     0  02:24           0        5.15       0.000
  YS02001784           JUNCTION      0.00   836.91     0  02:24           0        5.15      -0.001
  YS02001786           JUNCTION      0.00   836.49     0  02:24           0        5.15       0.004
  YS02001788           JUNCTION      0.00   836.58     0  02:25           0        5.15       0.003
  YS02001790           JUNCTION      0.00   836.55     0  02:25           0        5.15       0.011
  YS02001791           JUNCTION      0.00   885.06     0  02:25           0        5.15      -0.006
  YS02001793           JUNCTION      0.00   843.02     0  02:27           0        5.15       0.003
  YS02001882           JUNCTION      0.00    73.33     0  01:15           0      0.0338       1.503
  YS02001884           JUNCTION      0.00   103.33     0  01:13           0      0.0809       2.597
  YS02001887           JUNCTION    219.03   219.03     0  01:40        1.13        1.18       0.377
  YS02001890           JUNCTION      0.00   220.41     0  01:38           0        1.13       0.368
  YS02001895           JUNCTION      0.00   201.99     0  01:38           0        1.12       0.226
  YS02001898           JUNCTION      0.00   214.80     0  01:39           0        1.12      -0.088
  YS02001901           JUNCTION      0.00   238.48     0  01:43           0        1.13       0.245
  YS02001904           JUNCTION      0.00   230.18     0  01:45           0        1.14       0.213
  YS02001907           JUNCTION      0.00   578.86     0  02:26           0        3.57       0.467
  YS02001910           JUNCTION      0.00   450.75     0  01:43           0        2.43       0.259
  YS02001915           JUNCTION    266.49   392.10     0  02:23        1.59        2.43       0.032
  YS02001918           JUNCTION      0.00   140.34     0  02:26           0       0.837       0.018
  YS02001920           JUNCTION      0.00   138.53     0  02:24           0       0.837       0.074
  YS02001923           JUNCTION      0.00   136.58     0  02:22           0       0.837      -0.010
  YS02001926           JUNCTION      0.00   136.63     0  02:22           0       0.838       0.039
  YS02001929           JUNCTION    136.65   136.65     0  02:22       0.838       0.838      -0.010
  YS02006553           JUNCTION      0.00   579.24     0  02:27           0        3.57       0.320
  YS02006556           JUNCTION      0.00   578.67     0  02:27           0        3.59       0.210
  YS02006558           JUNCTION    297.93   838.53     0  02:24        1.65         5.2       0.049
  YS02006561           JUNCTION      0.00   837.19     0  02:24           0        5.15       0.008
  YS02163301           JUNCTION      0.00   874.11     0  01:41           0        6.03       0.028
  YS02163601           JUNCTION      0.00  1148.22     0  01:41           0        7.66       0.070
  YS02164001           JUNCTION      0.00  1148.35     0  01:41           0        7.66       0.036
  CC-1                 OUTFALL       0.00   683.00     0  00:00           0        4.84       0.000
  CC-2                 OUTFALL       0.00   683.00     0  00:00           0        3.74       0.000
  JK-1                 OUTFALL       0.00  1000.00     0  00:05           0        2.58       0.000
  JK-2                 OUTFALL       0.00  1000.00     0  00:05           0        2.58       0.000
  WSC                  OUTFALL       0.00   429.05     0  02:56           0        7.19       0.000
  CC-storage           STORAGE       0.00  2113.92     0  02:22           0        16.2      -0.156
  JK-storage           STORAGE       0.00   842.99     0  02:27           0         5.3      -0.307
  
  
  **********************
  Node Surcharge Summary
  **********************
  
  Surcharging occurs when water rises above the top of the highest conduit.
  ---------------------------------------------------------------------
                                               Max. Height   Min. Depth
                                   Hours       Above Crown    Below Rim
  Node                 Type      Surcharged         Meters       Meters
  ---------------------------------------------------------------------
  WS02006109           JUNCTION        2.50          0.416        1.404
  WS02006110           JUNCTION        0.01          0.544        1.306
  WS02006111           JUNCTION        0.01          0.856        1.014
  WS02006112           JUNCTION        0.02          1.680        0.000
  WS02006113           JUNCTION        0.01          0.705        1.225
  WS02006115           JUNCTION        0.01          0.682        1.568
  WS02006116           JUNCTION        0.01          0.053        2.237
  WS02006228           JUNCTION        2.48          0.810        1.390
  WS02006229           JUNCTION        2.52          0.510        1.940
  WS02006232           JUNCTION        2.57          0.743        0.737
  WS02006234           JUNCTION        0.01          0.108        1.132
  WS02006235           JUNCTION        2.52          0.189        1.101
  WS02006238           JUNCTION        2.54          0.205        1.225
  WS02006239           JUNCTION        2.52          0.193        1.097
  WS02006240           JUNCTION        2.52          0.243        1.147
  WS02006242           JUNCTION        2.61          0.255        0.565
  WS02006243           JUNCTION        2.53          0.256        0.514
  WS02006245           JUNCTION        2.53          0.144        0.706
  WS02006247           JUNCTION        2.54          0.180        0.580
  WS02006248           JUNCTION        2.51          0.135        0.245
  WS02006249           JUNCTION        2.53          0.206        0.184
  WS02006251           JUNCTION        0.01          0.453        0.727
  WS02006252           JUNCTION        2.79          1.100        0.000
  WS02006256           JUNCTION        7.80          2.050        0.000
  YS02001580           JUNCTION        0.17          0.450        0.000
  YS02001583           JUNCTION        0.19          0.500        0.000
  YS02001586           JUNCTION        1.38          0.510        0.000
  YS02001590           JUNCTION        1.45          0.736        0.014
  YS02001593           JUNCTION        1.45          0.700        0.140
  YS02001596           JUNCTION        1.66          0.962        0.108
  YS02001600           JUNCTION        1.99          1.190        0.000
  YS02001601           JUNCTION        2.17          1.440        0.000
  YS02001602           JUNCTION        2.11          1.270        0.000
  YS02001605           JUNCTION        2.09          1.175        0.005
  YS02001607           JUNCTION        1.43          0.636        0.044
  YS02001610           JUNCTION        1.45          0.680        0.000
  YS02001613           JUNCTION        1.43          0.635        0.065
  YS02001616           JUNCTION        1.39          0.559        0.051
  YS02001619           JUNCTION        1.38          0.536        0.074
  YS02001622           JUNCTION        1.38          0.527        0.093
  YS02001625           JUNCTION        1.53          0.773        0.007
  YS02001629           JUNCTION        1.19          0.403        0.067
  YS02001633           JUNCTION        1.55          0.787        0.273
  YS02001641           JUNCTION        1.49          0.621        0.479
  YS02001644           JUNCTION        1.45          0.562        0.358
  YS02001647           JUNCTION        0.91          0.284        0.616
  YS02001649           JUNCTION        1.32          0.406        0.644
  YS02001652           JUNCTION        0.67          0.196        0.934
  YS02001757           JUNCTION        1.38          0.406        0.804
  YS02001759           JUNCTION        1.24          0.310        0.900
  YS02001762           JUNCTION        1.16          0.274        0.876
  YS02001765           JUNCTION        0.91          0.227        0.873
  YS02001767           JUNCTION        0.87          0.187        0.843
  YS02001770           JUNCTION        0.83          0.155        0.765
  YS02001774           JUNCTION        0.97          0.264        0.786
  YS02001907           JUNCTION        1.50          0.220        0.730
  YS02001910           JUNCTION        0.10          0.070        1.030
  YS02006553           JUNCTION        1.55          0.227        0.963
  YS02006556           JUNCTION        0.72          0.139        1.211
  YS02006558           JUNCTION        0.63          0.113        1.287
  YS02163301           JUNCTION        1.53          0.781        0.249
  YS02163601           JUNCTION        1.57          0.763        0.317
  YS02164001           JUNCTION        1.49          0.645        0.455
  
  
  *********************
  Node Flooding Summary
  *********************
  
  Flooding refers to all water that overflows a node, whether it ponds or not.
  --------------------------------------------------------------------------
                                                             Total   Maximum
                                 Maximum   Time of Max       Flood    Ponded
                        Hours       Rate    Occurrence      Volume     Depth
  Node                 Flooded       LPS   days hr:min    10^6 ltr    Meters
  --------------------------------------------------------------------------
  WS02006112              0.01   1405.86      0  00:00       0.047     0.000
  WS02006252              0.01      0.91      0  01:32       0.000     0.000
  WS02006256              0.09    157.65      0  00:00       0.016     0.000
  YS02001580              0.01     43.63      0  01:41       0.000     0.000
  YS02001583              0.01     22.32      0  01:41       0.000     0.000
  YS02001586              0.01     39.95      0  01:41       0.000     0.000
  YS02001600              0.01      1.01      0  01:41       0.000     0.000
  YS02001601              1.34    224.55      0  02:21       0.468     0.000
  YS02001602              0.26     44.29      0  02:23       0.017     0.000
  YS02001610              0.01      1.35      0  02:23       0.000     0.000
  
  
  **********************
  Storage Volume Summary
  **********************
  
  --------------------------------------------------------------------------------------------------
                         Average     Avg  Evap Exfil       Maximum     Max    Time of Max    Maximum
                          Volume    Pcnt  Pcnt  Pcnt        Volume    Pcnt     Occurrence    Outflow
  Storage Unit           1000 m3    Full  Loss  Loss       1000 m3    Full    days hr:min        LPS
  --------------------------------------------------------------------------------------------------
  CC-storage               2.381      37     0     0         4.460      70       0  03:01    1794.93
  JK-storage               0.061      21     0     0         0.151      52       0  00:00    2000.00
  
  
  ***********************
  Outfall Loading Summary
  ***********************
  
  -----------------------------------------------------------
                         Flow       Avg       Max       Total
                         Freq      Flow      Flow      Volume
  Outfall Node           Pcnt       LPS       LPS    10^6 ltr
  -----------------------------------------------------------
  CC-1                  17.29    683.00    683.00       4.837
  CC-2                  13.82    683.00    683.00       3.736
  JK-1                   7.93   1000.00   1000.00       2.583
  JK-2                   7.93   1000.00   1000.00       2.583
  WSC                  100.00    247.82    429.05       7.188
  -----------------------------------------------------------
  System                29.39   3613.82    429.05      20.927
  
  
  ********************
  Link Flow Summary
  ********************
  
  -----------------------------------------------------------------------------
                                 Maximum  Time of Max   Maximum    Max/    Max/
                                  |Flow|   Occurrence   |Veloc|    Full    Full
  Link                 Type          LPS  days hr:min     m/sec    Flow   Depth
  -----------------------------------------------------------------------------
  1                    CONDUIT    429.05     0  02:56      2.63    0.15    0.26
  WS02003060WS02003069 CONDUIT    426.97     0  02:54      1.54    0.17    0.29
  WS02003066WSF200     CONDUIT    410.44     0  02:54      2.67    0.07    0.19
  WS02003067WS02003066 CONDUIT    410.44     0  02:53      1.04    0.13    0.38
  WS02003069WS02003072 CONDUIT    427.26     0  02:55      1.26    0.21    0.34
  WS02003072WS02003073 CONDUIT    427.25     0  02:55      1.31    0.92    0.33
  WS02004401WS02004402 CONDUIT   1254.90     0  00:01      2.61    1.51    0.77
  WS02004402WS02004403 CONDUIT    919.18     0  00:01      2.26    1.32    0.79
  WS02004403WS02004404 CONDUIT    867.70     0  00:01      2.00    0.63    0.84
  WS02004404WS02004405 CONDUIT    859.04     0  00:01      2.43    8.42    0.88
  WS02004405WS02004406 CONDUIT    734.85     0  00:02      2.27    1.45    0.88
  WS02004406WS02004407 CONDUIT    410.69     0  02:51      0.89    0.18    0.57
  WS02004407WS02004409 CONDUIT    410.62     0  02:52      1.97    0.15    0.42
  WS02004409WS02004410 CONDUIT    410.57     0  02:52      1.33    0.53    0.58
  WS02004410WS02004411 CONDUIT    410.53     0  02:56      1.28    0.56    0.60
  WS02004411WS02004412 CONDUIT    410.51     0  02:41      1.25    0.58    0.61
  WS02004412WS02004413 CONDUIT    410.51     0  03:04      1.26    0.27    0.70
  WS02004413WS02003067 CONDUIT    410.44     0  02:53      0.96    0.18    0.53
  WS02006109WS02006110 CONDUIT   1446.81     0  00:00      2.88    2.78    1.00
  WS02006110WS02006113 CONDUIT    517.18     0  00:00      1.06    0.47    1.00
  WS02006111WS02006112 CONDUIT   2307.30     0  00:00      9.18    1.10    1.00
  WS02006112WS02006115 CONDUIT    937.16     0  00:00      1.22    0.55    1.00
  WS02006113WS02006111 CONDUIT   1180.41     0  00:00      2.35    1.41    1.00
  WS02006115WS02006116 CONDUIT   1254.80     0  00:00      1.72    1.61    1.00
  WS02006116WS02004401 CONDUIT   1791.60     0  00:00      2.97    2.47    0.77
  WS02006228WS02006109 CONDUIT    869.18     0  00:00      1.91    3.80    1.00
  WS02006229WS02006228 CONDUIT    471.92     0  00:00      0.94    1.56    1.00
  WS02006230WS02006229 CONDUIT    676.90     0  00:00      1.89   15.06    1.00
  WS02006231WS02006230 CONDUIT    482.96     0  00:05      2.02    7.33    0.77
  WS02006232WS02006231 CONDUIT    490.75     0  00:05      1.77    1.03    0.94
  WS02006234WS02006232 CONDUIT    506.05     0  00:05      1.32    1.02    1.00
  WS02006235WS02006234 CONDUIT    549.56     0  00:04      1.51    5.80    1.00
  WS02006238WS02006235 CONDUIT    401.47     0  02:59      1.48    0.90    1.00
  WS02006239WS02006238 CONDUIT    400.81     0  02:48      1.04    1.28    1.00
  WS02006240WS02006239 CONDUIT    401.62     0  02:48      1.08    1.26    1.00
  WS02006242WS02006240 CONDUIT    400.68     0  02:44      1.05    1.59    1.00
  WS02006243WS02006242 CONDUIT    401.39     0  02:40      1.33    0.86    1.00
  WS02006245WS02006243 CONDUIT    400.64     0  02:23      1.46    1.18    1.00
  WS02006247WS02006245 CONDUIT    402.05     0  02:32      1.44    3.19    1.00
  WS02006248WS02006247 CONDUIT    400.90     0  02:40      1.51    0.87    1.00
  WS02006249WS02006248 CONDUIT    404.06     0  00:02      1.48    2.21    1.00
  WS02006251WS02006249 CONDUIT    843.88     0  00:00      3.03    2.43    1.00
  WS02006252WS02006251 CONDUIT    478.35     0  00:00     16.78    1.76    1.00
  WS02006256WS02006235 CONDUIT    288.74     0  00:01      4.23    3.06    1.00
  WSF200WS02003060     CONDUIT    410.46     0  03:05      1.92    0.09    0.24
  YS02001580YS02001583 CONDUIT     67.09     0  01:41      0.51    0.26    1.00
  YS02001583YS02001586 CONDUIT     96.61     0  01:40      0.42    0.15    1.00
  YS02001586YS02001590 CONDUIT    255.04     0  02:22      1.27    0.45    1.00
  YS02001590YS02001593 CONDUIT    255.11     0  02:22      1.04    1.60    1.00
  YS02001593YS02001596 CONDUIT    255.07     0  02:22      1.69    0.40    1.00
  YS02001596YS02001600 CONDUIT    255.16     0  02:22      1.23    0.50    1.00
  YS02001600YS02001601 CONDUIT    254.90     0  02:22      0.90    0.44    1.00
  YS02001601YS02001602 CONDUIT    495.43     0  01:42      1.75    1.79    1.00
  YS02001602YS02001605 CONDUIT    495.43     0  01:42      1.75   10.48    1.00
  YS02001605YS02001607 CONDUIT    495.41     0  01:42      1.75    2.72    1.00
  YS02001607YS02001610 CONDUIT    495.39     0  01:42      0.74    0.47    1.00
  YS02001610YS02001613 CONDUIT    495.33     0  01:42      0.66    0.57    1.00
  YS02001613YS02001616 CONDUIT    495.24     0  01:42      0.72    0.42    1.00
  YS02001616YS02001619 CONDUIT    494.84     0  01:42      0.80    0.86    1.00
  YS02001619YS02001622 CONDUIT    868.63     0  01:42      1.64    1.28    1.00
  YS02001622YS02001625 CONDUIT    869.93     0  01:42      1.11    0.46    1.00
  YS02001625YS02001629 CONDUIT    869.94     0  01:42      1.12    0.41    1.00
  YS02001629YS02163301 CONDUIT    874.11     0  01:41      1.11    1.08    1.00
  YS02001633YS02163601 CONDUIT   1148.22     0  01:41      1.46    1.21    1.00
  YS02001641YS02001644 CONDUIT   1148.87     0  01:41      1.46    3.71    1.00
  YS02001644YS02001647 CONDUIT   1392.76     0  01:41      1.94    0.82    1.00
  YS02001647YS02001649 CONDUIT   1396.17     0  01:41      2.16    0.74    1.00
  YS02001649YS02001757 CONDUIT   1574.32     0  01:43      2.25    0.96    1.00
  YS02001652YS02001649 CONDUIT    276.92     0  02:25      1.23    0.14    1.00
  YS02001655YS02001652 CONDUIT    275.66     0  02:25      1.60    0.13    1.00
  YS02001658YS02001655 CONDUIT    355.52     0  02:24      1.80    0.15    0.80
  YS02001661YS02001658 CONDUIT    354.11     0  02:26      1.95    0.14    0.44
  YS02001664YS02001661 CONDUIT    230.55     0  01:41      1.71    0.07    0.27
  YS02001745YS02001748 CONDUIT    147.23     0  01:41      1.79    0.06    0.32
  YS02001748YS02001751 CONDUIT    179.78     0  02:25      1.50    0.09    0.67
  YS02001751YS02001754 CONDUIT    167.07     0  02:26      1.45    0.08    0.88
  YS02001754YS02001757 CONDUIT    183.62     0  03:02      0.99    0.07    1.00
  YS02001757CaochengTiaoxuchi CONDUIT   2113.92     0  02:22      2.93    0.91    1.00
  YS02001759YS02001757 CONDUIT    470.05     0  02:22      1.27    0.33    1.00
  YS02001762YS02001759 CONDUIT    283.35     0  02:22      0.74    0.33    1.00
  YS02001765YS02001762 CONDUIT    282.82     0  02:22      0.85    0.27    1.00
  YS02001767YS02001765 CONDUIT    284.17     0  02:22      0.91    0.36    1.00
  YS02001770YS02001767 CONDUIT    283.31     0  02:21      0.83    1.12    1.00
  YS02001774YS02001770 CONDUIT     66.99     0  01:39      0.67    0.04    1.00
  YS02001779YS02001774 CONDUIT     49.20     0  01:41      0.17    0.02    1.00
  YS02001783YS02001784 CONDUIT    836.91     0  02:24      1.71    1.15    0.94
  YS02001784YS02001785 CONDUIT    836.49     0  02:24      1.84    1.95    0.85
  YS02001786YS02001788 CONDUIT    836.58     0  02:25      2.27    1.61    0.69
  YS02001788YS02001790 CONDUIT    836.55     0  02:25      2.36    0.62    0.67
  YS02001790YS02001791 CONDUIT    885.06     0  02:25      2.95    0.96    0.58
  YS02001791YS02001793 CONDUIT    843.02     0  02:27      5.95    0.36    0.33
  YS02001793JiankangQianchi CONDUIT    842.99     0  02:27      1.76    0.07    0.59
  YS02001882YS02001884 CONDUIT     73.33     0  01:15      0.39    0.08    0.82
  YS02001884YS02001887 CONDUIT    103.33     0  01:13      0.35    0.14    0.92
  YS02001887YS02001890 CONDUIT    220.41     0  01:38      0.47    0.38    0.97
  YS02001890YS02001895 CONDUIT    201.99     0  01:38      0.41    0.09    0.88
  YS02001895YS02001898 CONDUIT    214.80     0  01:39      0.70    0.37    0.76
  YS02001898YS02001901 CONDUIT    238.48     0  01:43      0.72    0.15    0.84
  YS02001901YS02001904 CONDUIT    230.18     0  01:45      0.38    0.36    0.89
  YS02001904YS02001907 CONDUIT    221.96     0  01:17      0.35    0.08    0.94
  YS02001907YS02006553 CONDUIT    579.24     0  02:27      0.64    0.68    1.00
  YS02001910YS02001907 CONDUIT    406.10     0  01:47      0.66    0.23    1.00
  YS02001915YS02001910 CONDUIT    450.75     0  01:43      1.23    0.22    0.90
  YS02001918YS02001915 CONDUIT    146.11     0  02:29      0.45    0.08    0.63
  YS02001920YS02001918 CONDUIT    140.34     0  02:26      0.67    0.14    0.49
  YS02001923YS02001920 CONDUIT    138.53     0  02:24      0.73    0.06    0.39
  YS02001926YS02001923 CONDUIT    136.58     0  02:22      0.86    0.20    0.26
  YS02001929YS02001926 CONDUIT    136.63     0  02:22      0.95    0.06    0.24
  YS02006553YS02006556 CONDUIT    578.67     0  02:27      0.88    0.50    1.00
  YS02006556YS02006558 CONDUIT    579.49     0  02:26      0.74    0.46    1.00
  YS02006558YS02006561 CONDUIT    837.19     0  02:24      3.32    1.85    0.83
  YS02006561YS02001783 CONDUIT    837.10     0  02:24      2.14    0.43    0.73
  YS02163301YS02001633 CONDUIT    873.78     0  01:41      1.11    0.82    1.00
  YS02163601YS02164001 CONDUIT   1148.35     0  01:41      1.46    1.02    1.00
  YS02164001YS02001641 CONDUIT   1148.56     0  01:41      1.46    1.57    1.00
  CC-R1                PUMP       683.00     0  00:00              1.00
  CC-R2                PUMP       683.00     0  00:00              1.00
  CC-S1                PUMP       200.00     0  00:00              1.00
  CC-S2                PUMP       200.00     0  00:00              1.00
  JK-R1                PUMP      1000.00     0  00:05              1.00
  JK-R2                PUMP      1000.00     0  00:05              1.00
  JK-S                 PUMP       300.00     0  00:00              1.00
  
  
  ***************************
  Flow Classification Summary
  ***************************
  
  -------------------------------------------------------------------------------------
                      Adjusted    ---------- Fraction of Time in Flow Class ---------- 
                       /Actual         Up    Down  Sub   Sup   Up    Down  Norm  Inlet 
  Conduit               Length    Dry  Dry   Dry   Crit  Crit  Crit  Crit  Ltd   Ctrl  
  -------------------------------------------------------------------------------------
  1                       1.00   0.00  0.00  0.00  0.00  1.00  0.00  0.00  0.16  0.00
  WS02003060WS02003069    1.00   0.00  0.00  0.00  0.96  0.04  0.00  0.00  0.59  0.00
  WS02003066WSF200        1.00   0.02  0.00  0.00  0.00  0.98  0.00  0.00  0.97  0.00
  WS02003067WS02003066    1.00   0.01  0.01  0.00  0.98  0.00  0.00  0.00  0.00  0.00
  WS02003069WS02003072    1.00   0.00  0.00  0.00  1.00  0.00  0.00  0.00  0.66  0.00
  WS02003072WS02003073    1.00   0.00  0.00  0.00  0.00  0.00  0.00  1.00  0.00  0.00
  WS02004401WS02004402    1.00   0.00  0.00  0.00  1.00  0.00  0.00  0.00  0.00  0.00
  WS02004402WS02004403    1.00   0.00  0.00  0.00  1.00  0.00  0.00  0.00  0.00  0.00
  WS02004403WS02004404    1.00   0.00  0.00  0.00  1.00  0.00  0.00  0.00  0.00  0.00
  WS02004404WS02004405    1.00   0.00  0.00  0.00  1.00  0.00  0.00  0.00  0.01  0.00
  WS02004405WS02004406    1.00   0.00  0.00  0.00  1.00  0.00  0.00  0.00  0.00  0.00
  WS02004406WS02004407    1.00   0.00  0.00  0.00  1.00  0.00  0.00  0.00  0.00  0.00
  WS02004407WS02004409    1.00   0.00  0.00  0.00  0.99  0.01  0.00  0.00  0.99  0.00
  WS02004409WS02004410    1.00   0.00  0.00  0.00  1.00  0.00  0.00  0.00  0.00  0.00
  WS02004410WS02004411    1.00   0.00  0.00  0.00  1.00  0.00  0.00  0.00  0.00  0.00
  WS02004411WS02004412    1.00   0.00  0.00  0.00  1.00  0.00  0.00  0.00  0.00  0.00
  WS02004412WS02004413    1.00   0.00  0.00  0.00  0.99  0.00  0.00  0.00  0.00  0.00
  WS02004413WS02003067    1.00   0.00  0.01  0.00  0.00  0.00  0.99  0.00  0.00  0.00
  WS02006109WS02006110    1.00   0.00  0.00  0.00  1.00  0.00  0.00  0.00  0.00  0.00
  WS02006110WS02006113    1.00   0.00  0.00  0.00  1.00  0.00  0.00  0.00  0.00  0.00
  WS02006111WS02006112    1.00   0.00  0.00  0.00  1.00  0.00  0.00  0.00  1.00  0.00
  WS02006112WS02006115    1.00   0.00  0.00  0.00  1.00  0.00  0.00  0.00  0.00  0.00
  WS02006113WS02006111    1.00   0.00  0.00  0.00  0.00  1.00  0.00  0.00  0.22  0.00
  WS02006115WS02006116    1.00   0.00  0.00  0.00  1.00  0.00  0.00  0.00  0.00  0.00
  WS02006116WS02004401    1.00   0.00  0.00  0.00  1.00  0.00  0.00  0.00  0.00  0.00
  WS02006228WS02006109    1.00   0.00  0.00  0.00  1.00  0.00  0.00  0.00  0.00  0.00
  WS02006229WS02006228    1.00   0.00  0.00  0.00  1.00  0.00  0.00  0.00  0.00  0.00
  WS02006230WS02006229    1.00   0.00  0.00  0.00  1.00  0.00  0.00  0.00  0.00  0.00
  WS02006231WS02006230    1.00   0.00  0.00  0.00  0.25  0.00  0.75  0.00  0.00  0.00
  WS02006232WS02006231    1.00   0.00  0.00  0.00  0.99  0.00  0.00  0.00  0.00  0.00
  WS02006234WS02006232    1.00   0.00  0.00  0.00  1.00  0.00  0.00  0.00  0.00  0.00
  WS02006235WS02006234    1.00   0.00  0.00  0.00  0.99  0.00  0.01  0.00  0.00  0.00
  WS02006238WS02006235    1.00   0.00  0.00  0.00  1.00  0.00  0.00  0.00  0.00  0.00
  WS02006239WS02006238    1.00   0.00  0.00  0.00  1.00  0.00  0.00  0.00  0.02  0.00
  WS02006240WS02006239    1.00   0.00  0.00  0.00  0.93  0.00  0.00  0.07  0.01  0.00
  WS02006242WS02006240    1.00   0.00  0.00  0.00  0.99  0.00  0.01  0.00  0.00  0.00
  WS02006243WS02006242    1.00   0.00  0.00  0.00  0.99  0.00  0.00  0.01  0.24  0.00
  WS02006245WS02006243    1.00   0.00  0.00  0.00  0.98  0.00  0.00  0.02  0.00  0.00
  WS02006247WS02006245    1.00   0.00  0.00  0.00  0.99  0.00  0.00  0.01  0.00  0.00
  WS02006248WS02006247    1.00   0.00  0.00  0.00  0.99  0.00  0.00  0.01  0.25  0.00
  WS02006249WS02006248    1.00   0.00  0.00  0.00  0.92  0.00  0.08  0.00  0.00  0.00
  WS02006251WS02006249    1.00   0.00  0.00  0.00  1.00  0.00  0.00  0.00  0.21  0.00
  WS02006252WS02006251    1.00   0.00  0.06  0.00  0.00  0.00  0.94  0.00  0.00  0.00
  WS02006256WS02006235    1.00   0.00  0.00  0.00  1.00  0.00  0.00  0.00  0.00  0.00
  WSF200WS02003060        1.00   0.00  0.02  0.00  0.07  0.90  0.00  0.00  0.50  0.00
  YS02001580YS02001583    1.00   0.23  0.58  0.00  0.19  0.00  0.00  0.00  0.61  0.00
  YS02001583YS02001586    1.00   0.29  0.49  0.00  0.22  0.00  0.00  0.00  0.62  0.00
  YS02001586YS02001590    1.00   0.12  0.00  0.00  0.47  0.06  0.00  0.35  0.32  0.00
  YS02001590YS02001593    1.00   0.12  0.00  0.00  0.18  0.00  0.70  0.00  0.00  0.00
  YS02001593YS02001596    1.00   0.12  0.00  0.00  0.24  0.00  0.00  0.63  0.04  0.00
  YS02001596YS02001600    1.00   0.12  0.00  0.00  0.27  0.01  0.00  0.60  0.03  0.00
  YS02001600YS02001601    1.00   0.12  0.00  0.00  0.88  0.00  0.00  0.00  0.54  0.00
  YS02001601YS02001602    1.00   0.12  0.00  0.00  0.88  0.00  0.00  0.00  0.00  0.00
  YS02001602YS02001605    1.00   0.12  0.00  0.00  0.88  0.00  0.00  0.00  0.00  0.00
  YS02001605YS02001607    1.00   0.12  0.00  0.00  0.88  0.00  0.00  0.00  0.00  0.00
  YS02001607YS02001610    1.00   0.12  0.00  0.00  0.88  0.00  0.00  0.00  0.00  0.00
  YS02001610YS02001613    1.00   0.12  0.00  0.00  0.88  0.00  0.00  0.00  0.00  0.00
  YS02001613YS02001616    1.00   0.12  0.00  0.00  0.88  0.00  0.00  0.00  0.00  0.00
  YS02001616YS02001619    1.00   0.12  0.00  0.00  0.88  0.00  0.00  0.00  0.00  0.00
  YS02001619YS02001622    1.00   0.12  0.00  0.00  0.87  0.01  0.00  0.00  0.27  0.00
  YS02001622YS02001625    1.00   0.12  0.00  0.00  0.88  0.00  0.00  0.00  0.01  0.00
  YS02001625YS02001629    1.00   0.12  0.01  0.00  0.24  0.00  0.63  0.00  0.00  0.00
  YS02001629YS02163301    1.00   0.12  0.00  0.00  0.88  0.00  0.00  0.00  0.00  0.00
  YS02001633YS02163601    1.00   0.12  0.00  0.00  0.88  0.00  0.00  0.00  0.00  0.00
  YS02001641YS02001644    1.00   0.12  0.00  0.00  0.88  0.00  0.00  0.00  0.00  0.00
  YS02001644YS02001647    1.00   0.12  0.00  0.00  0.88  0.00  0.00  0.00  0.00  0.00
  YS02001647YS02001649    1.00   0.12  0.00  0.00  0.54  0.34  0.00  0.00  0.55  0.00
  YS02001649YS02001757    1.00   0.00  0.12  0.00  0.60  0.27  0.00  0.00  0.15  0.00
  YS02001652YS02001649    1.00   0.12  0.00  0.00  0.87  0.01  0.00  0.00  0.53  0.00
  YS02001655YS02001652    1.00   0.12  0.00  0.00  0.25  0.01  0.00  0.62  0.10  0.00
  YS02001658YS02001655    1.00   0.12  0.00  0.00  0.72  0.16  0.00  0.00  0.65  0.00
  YS02001661YS02001658    1.00   0.12  0.00  0.00  0.52  0.36  0.00  0.00  0.80  0.00
  YS02001664YS02001661    1.00   0.12  0.00  0.00  0.62  0.26  0.00  0.00  0.87  0.00
  YS02001745YS02001748    1.00   0.12  0.00  0.00  0.12  0.01  0.00  0.75  0.17  0.00
  YS02001748YS02001751    1.00   0.12  0.00  0.00  0.74  0.14  0.00  0.00  0.64  0.00
  YS02001751YS02001754    1.00   0.12  0.00  0.00  0.19  0.04  0.00  0.66  0.06  0.00
  YS02001754YS02001757    1.00   0.00  0.12  0.00  0.88  0.00  0.00  0.00  0.55  0.00
  YS02001757CaochengTiaoxuchi    1.00   0.00  0.00  0.00  0.96  0.04  0.00  0.00  0.53  0.00
  YS02001759YS02001757    1.00   0.00  0.12  0.00  0.88  0.00  0.00  0.00  0.41  0.00
  YS02001762YS02001759    1.00   0.12  0.00  0.00  0.88  0.00  0.00  0.00  0.02  0.00
  YS02001765YS02001762    1.00   0.12  0.00  0.00  0.88  0.00  0.00  0.00  0.47  0.00
  YS02001767YS02001765    1.00   0.12  0.00  0.00  0.88  0.00  0.00  0.00  0.01  0.00
  YS02001770YS02001767    1.00   0.12  0.00  0.00  0.88  0.00  0.00  0.00  0.00  0.00
  YS02001774YS02001770    1.00   0.12  0.00  0.00  0.75  0.00  0.13  0.00  0.00  0.00
  YS02001779YS02001774    1.00   0.12  0.53  0.00  0.35  0.00  0.00  0.00  0.55  0.00
  YS02001783YS02001784    1.00   0.13  0.00  0.00  0.87  0.00  0.00  0.00  0.54  0.00
  YS02001784YS02001785    1.00   0.13  0.00  0.00  0.87  0.00  0.00  0.00  0.35  0.00
  YS02001786YS02001788    1.00   0.13  0.00  0.00  0.59  0.28  0.00  0.00  0.00  0.00
  YS02001788YS02001790    1.00   0.14  0.00  0.00  0.16  0.71  0.00  0.00  0.59  0.00
  YS02001790YS02001791    1.00   0.14  0.00  0.00  0.00  0.86  0.00  0.00  0.21  0.00
  YS02001791YS02001793    1.00   0.14  0.00  0.00  0.00  0.86  0.00  0.00  0.00  0.00
  YS02001793JiankangQianchi    1.00   0.00  0.14  0.00  0.86  0.00  0.00  0.00  0.85  0.00
  YS02001882YS02001884    1.00   0.12  0.00  0.00  0.88  0.00  0.00  0.00  0.00  0.00
  YS02001884YS02001887    1.00   0.12  0.00  0.00  0.88  0.00  0.00  0.00  0.00  0.00
  YS02001887YS02001890    1.00   0.12  0.00  0.00  0.88  0.00  0.00  0.00  0.00  0.00
  YS02001890YS02001895    1.00   0.12  0.00  0.00  0.88  0.00  0.00  0.00  0.00  0.00
  YS02001895YS02001898    1.00   0.12  0.00  0.00  0.86  0.00  0.01  0.00  0.00  0.00
  YS02001898YS02001901    1.00   0.12  0.00  0.00  0.87  0.00  0.00  0.00  0.00  0.00
  YS02001901YS02001904    1.00   0.12  0.00  0.00  0.87  0.00  0.00  0.00  0.00  0.00
  YS02001904YS02001907    1.00   0.12  0.00  0.00  0.87  0.00  0.00  0.00  0.00  0.00
  YS02001907YS02006553    1.00   0.12  0.00  0.00  0.88  0.00  0.00  0.00  0.00  0.00
  YS02001910YS02001907    1.00   0.12  0.00  0.00  0.88  0.00  0.00  0.00  0.00  0.00
  YS02001915YS02001910    1.00   0.12  0.00  0.00  0.87  0.01  0.00  0.00  0.00  0.00
  YS02001918YS02001915    1.00   0.12  0.00  0.00  0.87  0.00  0.00  0.00  0.63  0.00
  YS02001920YS02001918    1.00   0.12  0.00  0.00  0.87  0.00  0.00  0.00  0.00  0.00
  YS02001923YS02001920    1.00   0.12  0.00  0.00  0.88  0.00  0.00  0.00  0.81  0.00
  YS02001926YS02001923    1.00   0.12  0.00  0.00  0.00  0.00  0.88  0.00  0.00  0.00
  YS02001929YS02001926    1.00   0.12  0.00  0.00  0.88  0.00  0.00  0.00  0.87  0.00
  YS02006553YS02006556    1.00   0.12  0.00  0.00  0.88  0.00  0.00  0.00  0.00  0.00
  YS02006556YS02006558    1.00   0.12  0.00  0.00  0.88  0.00  0.00  0.00  0.00  0.00
  YS02006558YS02006561    1.00   0.13  0.00  0.00  0.00  0.87  0.00  0.00  0.13  0.00
  YS02006561YS02001783    1.00   0.13  0.00  0.00  0.11  0.76  0.00  0.00  0.61  0.00
  YS02163301YS02001633    1.00   0.12  0.00  0.00  0.88  0.00  0.00  0.00  0.00  0.00
  YS02163601YS02164001    1.00   0.12  0.00  0.00  0.88  0.00  0.00  0.00  0.00  0.00
  YS02164001YS02001641    1.00   0.12  0.00  0.00  0.88  0.00  0.00  0.00  0.00  0.00
  
  
  *************************
  Conduit Surcharge Summary
  *************************
  
  ----------------------------------------------------------------------------
                                                           Hours        Hours 
                         --------- Hours Full --------   Above Full   Capacity
  Conduit                Both Ends  Upstream  Dnstream   Normal Flow   Limited
  ----------------------------------------------------------------------------
  WS02004401WS02004402        0.01      0.01      0.01      0.01         0.01
  WS02004402WS02004403        0.01      0.01      0.01      0.02         0.01
  WS02004404WS02004405        0.01      0.01      0.01      6.10         0.01
  WS02004405WS02004406        0.01      0.01      0.01      0.01         0.01
  WS02006109WS02006110        0.01      0.01      2.57      0.01         0.01
  WS02006110WS02006113        0.01      0.01      2.53      0.01         0.01
  WS02006111WS02006112        0.01      0.01      2.87      0.01         0.01
  WS02006112WS02006115        0.01      0.01      0.01      0.01         0.01
  WS02006113WS02006111        0.01      0.01      0.01      0.01         0.01
  WS02006115WS02006116        0.01      0.01      0.01      0.01         0.01
  WS02006116WS02004401        0.01      0.01      0.01      0.01         0.01
  WS02006228WS02006109        2.49      2.57      2.50      3.04         2.49
  WS02006229WS02006228        2.48      2.52      2.48      2.79         2.48
  WS02006230WS02006229        2.66      2.76      2.67      6.21         2.66
  WS02006231WS02006230        0.01      0.01      0.01      6.03         0.01
  WS02006232WS02006231        0.01      0.01      2.57      0.01         0.01
  WS02006234WS02006232        2.46      2.47      2.57      0.01         0.01
  WS02006235WS02006234        0.01      0.01      2.52      5.93         0.01
  WS02006238WS02006235        2.52      2.52      2.58      0.01         0.01
  WS02006239WS02006238        2.54      2.57      2.54      2.70         2.53
  WS02006240WS02006239        2.52      2.53      2.52      2.68         2.51
  WS02006242WS02006240        2.52      2.52      2.64      2.82         0.01
  WS02006243WS02006242        2.54      2.54      2.61      0.01         0.01
  WS02006245WS02006243        2.53      2.53      2.53      2.69         2.51
  WS02006247WS02006245        2.53      2.55      2.53      5.86         2.52
  WS02006248WS02006247        2.52      2.52      2.54      0.01         0.01
  WS02006249WS02006248        2.51      2.51      2.53      5.84         0.01
  WS02006251WS02006249        2.53      2.54      2.53      2.74         2.52
  WS02006252WS02006251        2.74      2.74      2.79      2.75         0.01
  WS02006256WS02006235        5.97      5.98      7.79      0.09         0.01
  YS02001580YS02001583        0.17      0.17      0.58      0.01         0.01
  YS02001583YS02001586        0.19      0.19      1.38      0.01         0.01
  YS02001586YS02001590        1.39      1.39      1.45      0.01         0.01
  YS02001590YS02001593        1.45      1.45      1.47      1.44         0.01
  YS02001593YS02001596        1.47      1.47      1.66      0.01         0.01
  YS02001596YS02001600        1.76      1.76      1.99      0.01         0.01
  YS02001600YS02001601        2.02      2.02      2.17      0.01         0.01
  YS02001601YS02001602        2.11      2.11      2.19      2.01         0.01
  YS02001602YS02001605        2.09      2.09      2.11      2.71         0.01
  YS02001605YS02001607        2.06      2.09      2.06      2.14         2.06
  YS02001607YS02001610        1.43      1.43      1.45      0.01         0.01
  YS02001610YS02001613        1.43      1.43      1.45      0.01         0.01
  YS02001613YS02001616        1.39      1.39      1.43      0.01         0.01
  YS02001616YS02001619        1.38      1.38      1.39      0.01         0.01
  YS02001619YS02001622        1.38      1.38      1.38      1.46         1.36
  YS02001622YS02001625        1.38      1.38      1.53      0.01         0.01
  YS02001625YS02001629        1.19      1.19      1.53      0.01         0.01
  YS02001629YS02163301        1.52      1.52      1.53      0.35         0.61
  YS02001633YS02163601        1.55      1.55      1.57      1.36         1.30
  YS02001641YS02001644        1.45      1.49      1.45      2.20         1.45
  YS02001644YS02001647        0.91      0.91      1.45      0.01         0.01
  YS02001647YS02001649        0.91      0.91      1.32      0.01         0.01
  YS02001649YS02001757        1.32      1.32      1.38      0.01         0.01
  YS02001652YS02001649        0.84      0.84      1.32      0.01         0.01
  YS02001655YS02001652        0.01      0.01      0.66      0.01         0.01
  YS02001754YS02001757        0.16      0.16      1.38      0.01         0.01
  YS02001757CaochengTiaoxuchi        1.38      1.38      2.65      0.01         0.01
  YS02001759YS02001757        1.23      1.23      1.38      0.01         0.01
  YS02001762YS02001759        1.16      1.16      1.23      0.01         0.01
  YS02001765YS02001762        0.91      0.91      1.16      0.01         0.01
  YS02001767YS02001765        0.87      0.87      0.91      0.01         0.01
  YS02001770YS02001767        0.86      0.87      0.87      0.26         0.40
  YS02001774YS02001770        0.83      0.83      0.97      0.01         0.01
  YS02001779YS02001774        0.01      0.01      0.97      0.01         0.01
  YS02001783YS02001784        0.01      0.01      0.01      0.91         0.01
  YS02001784YS02001785        0.01      0.01      0.01      1.85         0.01
  YS02001786YS02001788        0.01      0.01      0.01      1.59         0.01
  YS02001793JiankangQianchi        0.01      0.01      6.82      0.01         0.01
  YS02001890YS02001895        0.01      0.01      0.08      0.01         0.01
  YS02001904YS02001907        0.01      0.01      1.56      0.01         0.01
  YS02001907YS02006553        1.87      1.87      1.93      0.01         0.01
  YS02001910YS02001907        0.09      0.09      1.50      0.01         0.01
  YS02001915YS02001910        0.01      0.01      0.10      0.01         0.01
  YS02006553YS02006556        0.72      0.72      1.55      0.01         0.01
  YS02006556YS02006558        1.20      1.20      1.58      0.01         0.01
  YS02006558YS02006561        0.01      0.63      0.01      1.75         0.01
  YS02163301YS02001633        1.53      1.53      1.56      0.01         0.01
  YS02163601YS02164001        1.49      1.49      1.57      0.05         0.01
  YS02164001YS02001641        1.49      1.49      1.49      1.69         1.48
  
  
  ***************
  Pumping Summary
  ***************
  
  ---------------------------------------------------------------------------------------------------------
                                                  Min       Avg       Max     Total     Power    % Time Off
                        Percent   Number of      Flow      Flow      Flow    Volume     Usage    Pump Curve
  Pump                 Utilized   Start-Ups       LPS       LPS       LPS  10^6 ltr     Kw-hr    Low   High
  ---------------------------------------------------------------------------------------------------------
  CC-R1                   24.60           2      0.00    683.00    683.00     4.838     91.32    0.0    4.4
  CC-R2                   19.00           2      0.00    683.00    683.00     3.737     70.93    0.0    5.7
  CC-S1                   74.07          46      0.00    200.00    200.00     4.266     25.46    0.0    0.0
  CC-S2                   34.30           2      0.00    200.00    200.00     1.976     10.68    0.0    0.0
  JK-R1                    9.00         314      0.00   1000.00   1000.00     2.591     14.62    0.0    0.0
  JK-R2                    9.00         314      0.00   1000.00   1000.00     2.591     14.62    0.0    0.0
  JK-S                     1.08           1      0.00    300.00    300.00     0.094      1.60    0.0    0.0
  

  Analysis begun on:  Fri Sep  8 22:17:50 2023
  Analysis ended on:  Fri Sep  8 22:18:36 2023
  Total elapsed time: 00:00:46