
  OWA STORM WATER MANAGEMENT MODEL - VERSION v5.1.14 (OWA 2022-07-31)
  --------------------------------------------------------------

  WARNING 04: minimum elevation drop used for Conduit WS02004404WS02004405
  WARNING 03: negative offset ignored for Link YS02001904YS02001907
  
  *********************************************************
  NOTE: The summary statistics displayed in this report are
  based on results found at every computational time step,  
  not just on results from each reporting time step.
  *********************************************************
  
  ****************
  Analysis Options
  ****************
  Flow Units ............... LPS
  Process Models:
    Rainfall/Runoff ........ YES
    RDII ................... NO
    Snowmelt ............... NO
    Groundwater ............ NO
    Flow Routing ........... YES
    Ponding Allowed ........ NO
    Water Quality .......... NO
  Infiltration Method ...... HORTON
  Flow Routing Method ...... DYNWAVE
  Surcharge Method ......... EXTRAN
  Starting Date ............ 08/28/2015 08:00:00
  Ending Date .............. 08/28/2015 16:00:00
  Antecedent Dry Days ...... 8.0
  Report Time Step ......... 00:01:00
  Wet Time Step ............ 00:01:00
  Dry Time Step ............ 00:01:00
  Routing Time Step ........ 30.00 sec
  Variable Time Step ....... YES
  Maximum Trials ........... 8
  Number of Threads ........ 4
  Head Tolerance ........... 0.001500 m
  
  
  **************************        Volume         Depth
  Runoff Quantity Continuity     hectare-m            mm
  **************************     ---------       -------
  Total Precipitation ......         7.286       120.274
  Evaporation Loss .........         0.000         0.000
  Infiltration Loss ........         0.256         4.221
  Surface Runoff ...........         6.970       115.066
  Final Storage ............         0.061         1.009
  Continuity Error (%) .....        -0.019
  
  
  **************************        Volume        Volume
  Flow Routing Continuity        hectare-m      10^6 ltr
  **************************     ---------     ---------
  Dry Weather Inflow .......         0.630         6.296
  Wet Weather Inflow .......         6.969        69.690
  Groundwater Inflow .......         0.000         0.000
  RDII Inflow ..............         0.000         0.000
  External Inflow ..........         0.105         1.045
  External Outflow .........         3.692        36.922
  Flooding Loss ............         4.003        40.028
  Evaporation Loss .........         0.000         0.000
  Exfiltration Loss ........         0.000         0.000
  Initial Stored Volume ....         0.303         3.031
  Final Stored Volume ......         0.319         3.194
  Continuity Error (%) .....        -0.103
  
  
  *************************
  Highest Continuity Errors
  *************************
  Node YS02001583 (-12.00%)
  Node YS02001884 (4.30%)
  Node YS02001774 (1.58%)
  Node WS02006256 (1.51%)
  
  
  ***************************
  Time-Step Critical Elements
  ***************************
  Link WS02006280WS02006229 (46.95%)
  Link YS02001791YS02001793 (20.49%)
  Link WS02006238WS02006235 (6.14%)
  Link YS02006556YS02006558 (4.76%)
  Link WS02004404WS02004405 (3.85%)
  
  
  ********************************
  Highest Flow Instability Indexes
  ********************************
  Link WS02006113WS02006111 (42)
  Link WS02006238WS02006235 (42)
  Link WS02006229WS02006228 (40)
  Link WS02004404WS02004405 (40)
  Link WS02006280WS02006229 (35)
  
  
  *************************
  Routing Time Step Summary
  *************************
  Minimum Time Step           :     0.00 sec
  Average Time Step           :     2.61 sec
  Maximum Time Step           :     7.99 sec
  Percent in Steady State     :     0.00
  Average Iterations per Step :     4.42
  Percent Not Converging      :    26.01
  
  
  ***************************
  Subcatchment Runoff Summary
  ***************************
  
  ------------------------------------------------------------------------------------------------------------------------------
                            Total      Total      Total      Total     Imperv       Perv      Total       Total     Peak  Runoff
                           Precip      Runon       Evap      Infil     Runoff     Runoff     Runoff      Runoff   Runoff   Coeff
  Subcatchment                 mm         mm         mm         mm         mm         mm         mm    10^6 ltr      LPS
  ------------------------------------------------------------------------------------------------------------------------------
  sub0                     120.27       0.00       0.00       1.05     110.63       7.37     118.00        0.10    22.60   0.981
  sub1                     120.27       0.00       0.00       1.82     105.80      11.41     117.22        0.78   184.04   0.975
  sub10                    120.27       0.00       0.00       1.28     109.38       8.34     117.72        1.30   306.31   0.979
  sub11                    120.27       0.00       0.00       1.26     109.40       8.37     117.77        1.37   323.33   0.979
  sub12                    120.27       0.00       0.00       2.04     103.48      13.60     117.08        1.02   242.93   0.973
  sub14                    120.27       0.00       0.00       1.44     108.20       9.39     117.59        1.12   264.53   0.978
  sub15                    120.27       0.00       0.00       5.62      83.23      30.47     113.69        1.96   455.56   0.945
  sub16                    120.27       0.00       0.00       5.83      79.69      33.87     113.56        1.19   282.42   0.944
  sub17                    120.27       0.00       0.00       5.68      80.88      32.81     113.68        0.98   231.28   0.945
  sub2                     120.27       0.00       0.00       7.97      74.87      36.53     111.40        1.04   225.82   0.926
  sub22                    120.27       0.00       0.00       8.49      67.78      43.23     111.02        7.01  1586.85   0.923
  sub23                    120.27       0.00       0.00       6.94      74.92      37.56     112.48        5.37  1248.09   0.935
  sub3                     120.27       0.00       0.00       8.66      74.83      35.84     110.67        2.49   518.54   0.920
  sub4                     120.27       0.00       0.00       2.02     105.62      11.21     116.83        2.44   553.78   0.971
  sub5                     120.27       0.00       0.00       1.11     110.56       7.31     117.87        1.34   314.52   0.980
  sub60                    120.27       0.00       0.00       1.93     104.65      12.51     117.16        1.54   364.86   0.974
  sub61                    120.27       0.00       0.00       2.80      98.71      17.65     116.36        2.14   507.66   0.967
  sub62                    120.27       0.00       0.00       1.28     109.37       8.34     117.71        3.23   760.35   0.979
  sub63                    120.27       0.00       0.00       5.17      84.44      29.71     114.15        2.59   613.09   0.949
  sub64                    120.27       0.00       0.00       2.61     101.03      15.43     116.46        2.80   658.65   0.968
  sub65                    120.27       0.00       0.00       2.26     103.39      13.37     116.76        3.21   754.23   0.971
  sub66                    120.27       0.00       0.00       6.34      84.32      28.54     112.86        5.26  1146.62   0.938
  sub67                    120.27       0.00       0.00       1.23     109.43       8.40     117.82        2.19   518.26   0.980
  sub68                    120.27       0.00       0.00       2.32     102.26      14.52     116.78        3.21   761.56   0.971
  sub69                    120.27       0.00       0.00       2.11     102.12      15.94     118.06        4.37  1012.02   0.982
  sub7                     120.27       0.00       0.00       1.41     108.22       9.41     117.64        0.40    93.77   0.978
  sub70                    120.27       0.00       0.00       6.90      79.21      34.00     113.21        3.27   673.09   0.941
  sub71                    120.27       0.00       0.00       1.32     109.33       8.30     117.63        3.08   720.92   0.978
  sub72                    120.27       0.00       0.00       1.18     110.45       7.24     117.69        1.62   374.48   0.979
  sub8                     120.27       0.00       0.00       1.43     108.21       9.40     117.61        0.75   177.64   0.978
  sub9                     120.27       0.00       0.00       1.43     108.21       9.39     117.60        0.57   133.68   0.978
  
  
  ******************
  Node Depth Summary
  ******************
  
  ---------------------------------------------------------------------------------
                                 Average  Maximum  Maximum  Time of Max    Reported
                                   Depth    Depth      HGL   Occurrence   Max Depth
  Node                 Type       Meters   Meters   Meters  days hr:min      Meters
  ---------------------------------------------------------------------------------
  HS02004478           JUNCTION     0.49     1.73    10.96     0  01:18        1.73
  HS02004479           JUNCTION     0.58     1.85    11.05     0  01:18        1.85
  HS02004480           JUNCTION     0.54     1.70    10.94     0  01:18        1.70
  HS02004770           JUNCTION     0.52     1.42    11.25     0  01:08        1.42
  HS02004777           JUNCTION     0.54     1.48    11.28     0  01:08        1.48
  HS02004785           JUNCTION     0.42     1.49    11.39     0  01:08        1.49
  HS02004788           JUNCTION     0.39     1.42    11.32     0  01:08        1.35
  HS02004792           JUNCTION     0.51     1.60    11.12     0  01:07        1.60
  HS02004799           JUNCTION     0.63     1.76    10.97     0  01:09        1.76
  HS02004802           JUNCTION     0.59     1.80    10.93     0  01:18        1.74
  HS02004807           JUNCTION     0.57     1.92    11.09     0  01:11        1.92
  HS02004817           JUNCTION     0.88     2.44    11.29     0  01:18        2.44
  HS02004824           JUNCTION     0.42     2.01    11.41     0  01:11        2.01
  HS02004830           JUNCTION     0.41     2.03    11.50     0  01:11        2.03
  HS02004837           JUNCTION     0.35     2.04    11.62     0  01:18        2.04
  HS02004842           JUNCTION     0.65     2.22    11.49     0  01:11        2.22
  HS02004848           JUNCTION     0.33     2.07    11.67     0  01:11        2.07
  HS02004852           JUNCTION     0.34     2.12    11.63     0  01:11        2.12
  HS02004856           JUNCTION     0.40     2.07    11.50     0  01:11        2.07
  HS02004862           JUNCTION     0.36     2.00    11.38     0  01:11        2.00
  HS02004870           JUNCTION     0.35     2.10    11.39     0  01:11        2.08
  HS02004876           JUNCTION     0.43     2.26    11.29     0  01:11        2.26
  HS02004881           JUNCTION     0.35     2.15    11.18     0  01:11        1.91
  HS02004901           JUNCTION     0.52     1.42    11.24     0  01:08        1.42
  WS02001211           JUNCTION     0.67     0.87     5.71     0  01:18        0.86
  WS02001212           JUNCTION     0.42     0.65     5.71     0  01:17        0.64
  WS02001213           JUNCTION     0.65     0.98     5.74     0  01:17        0.88
  WS02003059           JUNCTION     0.72     0.98     5.67     0  01:19        0.98
  WS02003060           JUNCTION     0.44     0.70     5.63     0  01:20        0.69
  WS02003066           JUNCTION     0.27     0.46     6.01     0  01:12        0.45
  WS02003067           JUNCTION     0.60     0.94     6.26     0  01:12        0.89
  WS02003069           JUNCTION     0.50     0.78     5.36     0  01:21        0.78
  WS02003072           JUNCTION     0.55     0.82     5.19     0  01:19        0.81
  WS02003073           JUNCTION     0.34     0.52     4.58     0  01:20        0.52
  WS02004138           JUNCTION     0.13     0.14     7.39     0  00:29        0.14
  WS02004139           JUNCTION     0.61     0.79     5.70     0  01:16        0.78
  WS02004401           JUNCTION     0.97     2.66     8.66     0  01:09        1.92
  WS02004402           JUNCTION     0.97     2.74     8.70     0  01:09        1.85
  WS02004403           JUNCTION     0.96     3.03     8.96     0  01:09        1.90
  WS02004404           JUNCTION     1.01     3.31     9.16     0  01:09        1.78
  WS02004405           JUNCTION     0.99     3.27     9.12     0  01:09        1.99
  WS02004406           JUNCTION     0.96     3.45     9.28     0  01:09        1.95
  WS02004407           JUNCTION     0.39     0.89     7.20     0  01:32        0.89
  WS02004409           JUNCTION     0.70     1.50     7.27     0  01:11        1.36
  WS02004410           JUNCTION     0.68     1.45     7.17     0  01:12        1.36
  WS02004411           JUNCTION     0.67     1.43     7.11     0  01:12        1.18
  WS02004412           JUNCTION     0.65     1.28     6.92     0  01:12        1.09
  WS02004413           JUNCTION     0.76     2.07     7.54     0  01:11        1.14
  WS02006109           JUNCTION     1.37     2.64     9.26     0  01:09        2.64
  WS02006110           JUNCTION     1.25     2.76     9.34     0  01:07        2.76
  WS02006111           JUNCTION     0.70     2.41     9.12     0  03:04        2.41
  WS02006112           JUNCTION     1.25     2.68     8.56     0  01:09        2.68
  WS02006113           JUNCTION     0.79     2.63     9.52     0  03:04        2.63
  WS02006115           JUNCTION     0.93     2.78     8.92     0  01:09        2.21
  WS02006116           JUNCTION     0.98     2.84     8.88     0  01:09        2.31
  WS02006228           JUNCTION     1.49     3.03     9.68     0  01:09        3.03
  WS02006229           JUNCTION     1.54     3.25     9.94     0  01:09        3.25
  WS02006230           JUNCTION     1.36     2.65     9.39     0  01:09        2.65
  WS02006231           JUNCTION     1.04     2.24     9.36     0  01:07        2.24
  WS02006232           JUNCTION     1.10     2.18     9.22     0  01:07        2.18
  WS02006234           JUNCTION     0.95     1.96     9.12     0  01:08        1.96
  WS02006235           JUNCTION     0.94     2.00     9.16     0  01:08        2.00
  WS02006238           JUNCTION     0.95     2.15     9.29     0  01:08        2.04
  WS02006239           JUNCTION     0.86     2.03     9.24     0  01:08        1.88
  WS02006240           JUNCTION     0.79     2.10     9.39     0  01:09        1.70
  WS02006242           JUNCTION     0.79     1.55     8.82     0  01:09        1.55
  WS02006243           JUNCTION     0.66     1.48     8.90     0  01:09        1.39
  WS02006245           JUNCTION     0.63     1.56     9.04     0  01:09        1.27
  WS02006247           JUNCTION     0.62     1.47     8.97     0  01:09        1.34
  WS02006248           JUNCTION     0.55     1.10     8.69     0  01:09        1.10
  WS02006249           JUNCTION     0.56     1.09     8.69     0  01:09        1.09
  WS02006251           JUNCTION     0.83     2.21     9.88     0  01:11        2.12
  WS02006252           JUNCTION     0.56     1.50     9.74     0  00:00        1.50
  WS02006253           JUNCTION     1.00     3.38    11.02     0  01:11        2.81
  WS02006256           JUNCTION     1.23     2.35     9.28     0  00:00        2.35
  WS02006280           JUNCTION     0.65     1.80    10.07     0  01:09        1.75
  WS02006284           JUNCTION     0.86     2.00    10.40     0  01:09        1.92
  WS02006287           JUNCTION     0.58     1.89    10.84     0  01:18        1.89
  WSF200               JUNCTION     0.28     0.59     5.83     0  01:12        0.53
  YS02001580           JUNCTION     0.26     1.05     9.59     0  01:09        0.78
  YS02001583           JUNCTION     0.30     1.14     9.64     0  01:09        0.82
  YS02001586           JUNCTION     0.44     1.13     9.30     0  01:08        1.13
  YS02001590           JUNCTION     0.58     1.40     9.26     0  01:07        1.38
  YS02001593           JUNCTION     0.52     1.41     9.27     0  01:09        1.33
  YS02001596           JUNCTION     0.68     1.73     9.15     0  01:09        1.68
  YS02001600           JUNCTION     0.79     1.87     9.00     0  01:08        1.86
  YS02001601           JUNCTION     0.99     2.06     8.90     0  01:07        2.06
  YS02001602           JUNCTION     0.86     1.87     8.77     0  01:10        1.87
  YS02001605           JUNCTION     0.79     1.78     8.68     0  01:10        1.78
  YS02001607           JUNCTION     0.71     1.68     8.53     0  01:10        1.68
  YS02001610           JUNCTION     0.75     1.68     8.48     0  01:10        1.68
  YS02001613           JUNCTION     0.71     1.70     8.54     0  01:10        1.70
  YS02001616           JUNCTION     0.64     1.61     8.52     0  01:10        1.60
  YS02001619           JUNCTION     0.62     1.61     8.54     0  01:10        1.61
  YS02001622           JUNCTION     0.60     1.59     8.49     0  01:10        1.56
  YS02001625           JUNCTION     0.86     1.78     8.38     0  01:10        1.78
  YS02001629           JUNCTION     0.76     1.85     8.40     0  01:10        1.85
  YS02001633           JUNCTION     0.82     2.05     8.51     0  01:18        2.05
  YS02001641           JUNCTION     0.76     2.00     8.44     0  01:18        2.00
  YS02001644           JUNCTION     0.74     1.92     8.35     0  01:15        1.92
  YS02001647           JUNCTION     0.49     1.86     8.47     0  01:45        1.86
  YS02001649           JUNCTION     0.53     2.05     8.44     0  01:45        2.05
  YS02001652           JUNCTION     0.40     2.16     8.76     0  01:45        2.16
  YS02001655           JUNCTION     0.28     2.20     9.05     0  01:45        2.20
  YS02001658           JUNCTION     0.21     1.99     9.13     0  01:45        1.99
  YS02001661           JUNCTION     0.21     0.84     8.25     0  01:31        0.84
  YS02001664           JUNCTION     0.10     0.30     8.22     0  01:32        0.30
  YS02001745           JUNCTION     0.10     0.66     8.18     0  01:26        0.62
  YS02001748           JUNCTION     0.17     1.50     8.57     0  01:26        1.26
  YS02001751           JUNCTION     0.22     1.77     8.64     0  01:26        1.77
  YS02001754           JUNCTION     0.32     2.02     8.63     0  01:26        2.02
  YS02001757           JUNCTION     0.52     2.16     8.42     0  01:26        2.16
  YS02001759           JUNCTION     0.46     2.12     8.48     0  01:26        2.12
  YS02001762           JUNCTION     0.45     2.09     8.49     0  01:26        2.09
  YS02001765           JUNCTION     0.42     2.05     8.50     0  01:26        2.05
  YS02001767           JUNCTION     0.42     2.01     8.50     0  01:26        2.01
  YS02001770           JUNCTION     0.43     1.95     8.44     0  01:26        1.95
  YS02001774           JUNCTION     0.50     2.05     8.47     0  01:26        2.05
  YS02001779           JUNCTION     0.31     1.68     8.37     0  01:13        1.68
  YS02001783           JUNCTION     0.44     1.31     7.45     0  01:18        1.24
  YS02001784           JUNCTION     0.44     1.26     7.33     0  01:18        1.26
  YS02001786           JUNCTION     0.36     0.91     6.94     0  01:18        0.87
  YS02001788           JUNCTION     0.26     0.62     6.60     0  01:12        0.62
  YS02001790           JUNCTION     0.30     0.72     6.37     0  01:30        0.72
  YS02001791           JUNCTION     0.19     0.44     5.91     0  01:18        0.44
  YS02001793           JUNCTION     0.10     0.30     5.14     0  01:39        0.28
  YS02001882           JUNCTION     0.55     1.83     8.55     0  01:10        1.63
  YS02001884           JUNCTION     0.64     1.93     8.55     0  01:10        1.74
  YS02001887           JUNCTION     0.72     2.00     8.54     0  01:18        2.00
  YS02001890           JUNCTION     0.75     1.81     8.32     0  01:12        1.81
  YS02001895           JUNCTION     0.52     1.58     8.33     0  01:29        1.58
  YS02001898           JUNCTION     0.53     1.77     8.51     0  01:18        1.77
  YS02001901           JUNCTION     0.64     1.70     8.31     0  01:12        1.69
  YS02001904           JUNCTION     0.62     1.65     8.28     0  01:12        1.64
  YS02001907           JUNCTION     0.94     1.96     8.25     0  01:12        1.96
  YS02001910           JUNCTION     0.74     1.97     8.48     0  01:13        1.97
  YS02001915           JUNCTION     0.56     1.92     8.64     0  01:13        1.92
  YS02001918           JUNCTION     0.36     1.81     8.88     0  01:12        1.81
  YS02001920           JUNCTION     0.44     2.10     9.11     0  01:13        2.00
  YS02001923           JUNCTION     0.28     2.03     9.29     0  01:13        1.90
  YS02001926           JUNCTION     0.29     1.90     9.35     0  01:13        1.90
  YS02001929           JUNCTION     0.18     1.78     9.47     0  01:13        1.78
  YS02006553           JUNCTION     0.94     2.19     8.47     0  01:18        2.19
  YS02006556           JUNCTION     0.91     2.35     8.66     0  01:18        2.35
  YS02006558           JUNCTION     0.95     2.09     8.36     0  01:18        2.01
  YS02006561           JUNCTION     0.29     0.99     7.65     0  01:12        0.88
  YS02163301           JUNCTION     0.78     1.98     8.50     0  01:18        1.98
  YS02163601           JUNCTION     0.84     2.08     8.48     0  01:17        2.08
  YS02164001           JUNCTION     0.76     2.03     8.49     0  01:18        2.02
  YSB1154              JUNCTION     0.72     1.98    11.03     0  01:09        1.87
  YSB1171              JUNCTION     0.86     1.95    10.85     0  01:09        1.95
  YSB1174              JUNCTION     0.67     1.83    10.94     0  01:09        1.80
  YSB6556              JUNCTION     0.62     1.80    10.97     0  01:09        1.80
  CC-1                 OUTFALL      0.00     0.00     0.00     0  00:00        0.00
  CC-2                 OUTFALL      0.00     0.00     0.00     0  00:00        0.00
  JK-1                 OUTFALL      0.00     0.00     0.00     0  00:00        0.00
  JK-2                 OUTFALL      0.00     0.00     0.00     0  00:00        0.00
  WSC                  OUTFALL      0.34     0.51     1.18     0  01:21        0.51
  CC-storage           STORAGE      0.57     0.98     6.48     0  02:20        0.98
  JK-storage           STORAGE      1.80     4.24     5.04     0  01:48        4.21
  XR-storage           STORAGE      7.87     9.26     7.26     0  08:00        9.26
  
  
  *******************
  Node Inflow Summary
  *******************
  
  -------------------------------------------------------------------------------------------------
                                  Maximum  Maximum                  Lateral       Total        Flow
                                  Lateral    Total  Time of Max      Inflow      Inflow     Balance
                                   Inflow   Inflow   Occurrence      Volume      Volume       Error
  Node                 Type           LPS      LPS  days hr:min    10^6 ltr    10^6 ltr     Percent
  -------------------------------------------------------------------------------------------------
  HS02004478           JUNCTION      0.00  2461.29     0  01:08           0        15.3      -0.009
  HS02004479           JUNCTION      0.00   440.21     0  01:11           0        1.33       0.063
  HS02004480           JUNCTION      0.00  2288.72     0  01:09           0        11.4      -0.011
  HS02004770           JUNCTION   1248.09  1248.09     0  01:33        5.36        5.64       0.048
  HS02004777           JUNCTION      0.03   827.23     0  01:08    0.000864        3.13       0.174
  HS02004785           JUNCTION      0.15   830.02     0  01:08     0.00432        3.13       0.013
  HS02004788           JUNCTION    457.23  1070.88     0  01:08           2        5.14       0.002
  HS02004792           JUNCTION   1587.13  2341.81     0  01:34        7.02        12.2      -0.002
  HS02004799           JUNCTION    264.53  1920.42     0  01:09        1.12        10.3       0.055
  HS02004802           JUNCTION      0.00  1078.55     0  01:33           0        3.99       0.074
  HS02004807           JUNCTION    323.33  1078.81     0  01:33        1.37        4.04       0.093
  HS02004817           JUNCTION      0.60   757.51     0  01:33      0.0173        2.73       0.612
  HS02004824           JUNCTION    553.83   757.15     0  01:33        2.44        3.18       0.014
  HS02004830           JUNCTION      0.15   721.21     0  01:10     0.00432        1.22       0.099
  HS02004837           JUNCTION    312.66   955.87     0  01:10        1.48        2.13       0.042
  HS02004842           JUNCTION      0.00   921.55     0  01:10           0        1.56       0.849
  HS02004848           JUNCTION    518.54  1131.38     0  01:10        2.49        3.93      -0.011
  HS02004852           JUNCTION      0.00  1069.07     0  01:10           0        3.83       0.024
  HS02004856           JUNCTION    133.68  1115.42     0  01:11       0.565        4.39       0.007
  HS02004862           JUNCTION    226.02  1227.46     0  01:11        1.04        5.43       0.006
  HS02004870           JUNCTION    177.64  1195.09     0  01:11       0.751        6.18      -0.001
  HS02004876           JUNCTION    184.04  1341.08     0  01:33       0.779        6.96       0.007
  HS02004881           JUNCTION     93.77  1434.60     0  01:33       0.396        7.37       0.005
  HS02004901           JUNCTION    282.42   548.21     0  01:32        1.19        2.19       0.082
  WS02001211           JUNCTION      7.35   383.29     0  01:16       0.212        5.45       0.608
  WS02001212           JUNCTION      0.00   517.61     0  01:14           0        5.43       0.289
  WS02001213           JUNCTION      0.00   480.20     0  01:13           0        5.42       0.318
  WS02003059           JUNCTION      0.00   544.04     0  01:13           0        5.43       0.587
  WS02003060           JUNCTION     16.53  1643.76     0  01:12       0.476        16.6       0.089
  WS02003066           JUNCTION      0.00  1280.76     0  01:23           0        10.8       0.015
  WS02003067           JUNCTION      0.00  1278.80     0  01:30           0        10.8       0.041
  WS02003069           JUNCTION      0.32  1518.66     0  01:20     0.00922        16.6       0.095
  WS02003072           JUNCTION      0.00  1508.86     0  01:21           0        16.6       0.128
  WS02003073           JUNCTION      1.82  1509.04     0  01:20      0.0524        16.6       0.131
  WS02004138           JUNCTION      0.00   380.00     0  00:00           0        5.25       0.053
  WS02004139           JUNCTION      0.32   334.15     0  01:15     0.00924        5.26       0.508
  WS02004401           JUNCTION      0.00  1409.24     0  01:09           0        10.9       0.095
  WS02004402           JUNCTION      0.00  1416.44     0  01:09           0        10.9       0.095
  WS02004403           JUNCTION      0.00  1403.01     0  01:09           0        10.9       0.092
  WS02004404           JUNCTION      0.16  1392.10     0  01:09     0.00467        10.9       0.077
  WS02004405           JUNCTION      0.04  1392.54     0  01:09      0.0011        10.8       0.126
  WS02004406           JUNCTION      0.00  1460.94     0  01:09           0        10.8       0.175
  WS02004407           JUNCTION      0.00  1330.79     0  01:09           0        10.8       0.016
  WS02004409           JUNCTION      0.00  1422.79     0  01:10           0        10.8       0.031
  WS02004410           JUNCTION      0.00  1477.11     0  01:10           0        10.8       0.039
  WS02004411           JUNCTION      0.00  1344.67     0  01:11           0        10.8       0.059
  WS02004412           JUNCTION      0.00  1278.85     0  01:32           0        10.8       0.077
  WS02004413           JUNCTION      0.00  1303.52     0  01:11           0        10.8       0.117
  WS02006109           JUNCTION      1.23  1322.11     0  01:09      0.0354        10.6       0.091
  WS02006110           JUNCTION      0.00  1325.14     0  01:09           0        9.94       0.070
  WS02006111           JUNCTION      0.00  1332.32     0  01:09           0        9.93       0.008
  WS02006112           JUNCTION    231.28  1441.04     0  01:09       0.975        10.9       0.168
  WS02006113           JUNCTION      0.00  1328.37     0  01:09           0        9.94       0.025
  WS02006115           JUNCTION      0.00  1439.38     0  01:09           0        10.9       0.053
  WS02006116           JUNCTION      0.00  1410.18     0  01:09           0        10.9       0.025
  WS02006228           JUNCTION      0.00  1318.30     0  01:09           0        10.6       0.039
  WS02006229           JUNCTION      0.00  2286.05     0  01:32           0        16.3       0.039
  WS02006230           JUNCTION     10.28  1016.33     0  01:32       0.296        6.76       0.132
  WS02006231           JUNCTION      0.00   756.11     0  01:08           0        3.96      -0.059
  WS02006232           JUNCTION      0.00   755.77     0  01:08           0        3.94       0.124
  WS02006234           JUNCTION      0.00   755.50     0  01:08           0        3.91      -0.015
  WS02006235           JUNCTION      0.00   779.67     0  01:08           0        3.65       0.068
  WS02006238           JUNCTION      0.00   727.10     0  01:08           0        3.55      -0.046
  WS02006239           JUNCTION      0.00   795.16     0  01:08           0        3.51      -0.041
  WS02006240           JUNCTION      0.00  1019.48     0  01:09           0        3.48      -0.121
  WS02006242           JUNCTION      0.00   854.31     0  01:09           0        3.46      -0.046
  WS02006243           JUNCTION      0.00   605.74     0  01:09           0        2.56      -0.165
  WS02006245           JUNCTION      0.00   466.68     0  01:09           0        2.57       0.603
  WS02006247           JUNCTION      0.00   481.31     0  01:09           0        2.57      -0.041
  WS02006248           JUNCTION      0.00   511.68     0  03:15           0        3.03      -0.212
  WS02006249           JUNCTION      0.00  1336.80     0  01:11           0         8.8       0.216
  WS02006251           JUNCTION      0.08  1457.02     0  01:33     0.00222        9.02      -0.024
  WS02006252           JUNCTION      0.00  2086.53     0  01:24           0        6.18      -0.510
  WS02006253           JUNCTION     22.60  1457.51     0  01:33      0.0955        7.55       0.025
  WS02006256           JUNCTION      0.00  1500.00     0  00:20           0        2.39       1.538
  WS02006280           JUNCTION      0.00  2285.17     0  01:31           0        15.3      -0.020
  WS02006284           JUNCTION      0.10  2360.38     0  01:09     0.00275        15.2      -0.019
  WS02006287           JUNCTION      0.00  2477.34     0  01:08           0        15.3       0.072
  WSF200               JUNCTION      0.00  1287.43     0  01:12           0        10.8       0.009
  YS02001580           JUNCTION      0.00   151.18     0  01:09           0     0.00484       2.559
  YS02001583           JUNCTION      0.00   236.87     0  01:09           0      0.0151     -10.710
  YS02001586           JUNCTION    673.09   673.20     0  01:36        3.27        3.28       0.065
  YS02001590           JUNCTION      0.00   329.99     0  01:18           0        2.33      -0.045
  YS02001593           JUNCTION      0.00   323.07     0  01:18           0        2.34       0.013
  YS02001596           JUNCTION      0.00   319.53     0  01:18           0        2.34      -0.024
  YS02001600           JUNCTION      0.00   319.40     0  01:18           0        2.34       0.037
  YS02001601           JUNCTION   1012.02  1329.68     0  01:32        4.37        6.71       0.010
  YS02001602           JUNCTION      0.00   606.31     0  01:09           0        3.55       0.016
  YS02001605           JUNCTION      0.00   606.44     0  01:09           0         3.3       0.024
  YS02001607           JUNCTION      0.00   606.33     0  01:09           0         3.3       0.039
  YS02001610           JUNCTION      0.00   610.12     0  01:34           0        3.76       0.068
  YS02001613           JUNCTION      0.00   572.07     0  01:09           0        2.64       0.059
  YS02001616           JUNCTION      0.00   513.54     0  02:45           0        2.65       0.021
  YS02001619           JUNCTION   1146.62  1146.62     0  01:35        5.26        7.45      -0.008
  YS02001622           JUNCTION      0.00   972.33     0  02:26           0        6.98       0.001
  YS02001625           JUNCTION      0.00  1132.48     0  01:33           0         7.2       0.140
  YS02001629           JUNCTION      0.00   973.15     0  02:26           0        5.24       0.001
  YS02001633           JUNCTION    754.43  1398.28     0  01:12        3.22        8.24       0.041
  YS02001641           JUNCTION      0.00  1394.43     0  01:12           0        8.02       0.036
  YS02001644           JUNCTION    658.69  1840.51     0  01:12         2.8        10.8       0.029
  YS02001647           JUNCTION      0.00  1839.50     0  01:12           0        10.8       0.002
  YS02001649           JUNCTION      0.00  2261.47     0  01:12           0        13.4       0.006
  YS02001652           JUNCTION      0.00   640.58     0  01:34           0         2.6      -0.129
  YS02001655           JUNCTION      0.15   650.67     0  01:18     0.00443         2.6       0.033
  YS02001658           JUNCTION      0.00   887.57     0  01:49           0        2.59      -0.263
  YS02001661           JUNCTION      0.00   613.06     0  01:32           0        2.59       0.031
  YS02001664           JUNCTION    613.09   613.09     0  01:32        2.59        2.59      -0.008
  YS02001745           JUNCTION    364.87   366.85     0  01:26        1.54        1.54       0.097
  YS02001748           JUNCTION      0.04   706.71     0  01:22      0.0013        1.54      -0.731
  YS02001751           JUNCTION      0.01   544.64     0  01:14    0.000317        1.55       0.008
  YS02001754           JUNCTION      0.26   535.23     0  01:18     0.00749        1.56      -0.130
  YS02001757           JUNCTION      0.00  3555.20     0  01:18           0        20.3       0.018
  YS02001759           JUNCTION    507.70  1288.94     0  01:30        2.14        5.38      -0.013
  YS02001762           JUNCTION      0.00   779.09     0  01:30           0        3.25       0.006
  YS02001765           JUNCTION      0.00   776.60     0  01:30           0        3.24       0.013
  YS02001767           JUNCTION      0.54   774.40     0  01:30      0.0154        3.24       0.005
  YS02001770           JUNCTION    760.51   767.54     0  01:30        3.23        3.28      -0.001
  YS02001774           JUNCTION      0.00   273.59     0  01:13           0       0.086       1.604
  YS02001779           JUNCTION      0.01   270.80     0  01:13    0.000144      0.0296      -1.900
  YS02001783           JUNCTION      0.00  1157.06     0  01:18           0        7.42       0.004
  YS02001784           JUNCTION      1.06  1167.30     0  01:18      0.0305        7.45       0.007
  YS02001786           JUNCTION      0.06  1164.86     0  01:18     0.00162        7.45       0.008
  YS02001788           JUNCTION      0.07  1167.57     0  01:18     0.00204        7.46       0.004
  YS02001790           JUNCTION      0.15  1166.65     0  01:36     0.00446        7.46       0.026
  YS02001791           JUNCTION      0.00  1289.20     0  01:29           0        7.46      -0.049
  YS02001793           JUNCTION      0.00  1248.38     0  01:31           0        7.46       0.007
  YS02001882           JUNCTION      0.00   113.19     0  01:09           0      0.0152       4.427
  YS02001884           JUNCTION      0.00   200.40     0  01:09           0       0.054       4.489
  YS02001887           JUNCTION    518.71   522.18     0  01:29         2.2        2.24       0.198
  YS02001890           JUNCTION      0.00   521.33     0  01:29           0         2.2       0.236
  YS02001895           JUNCTION      0.00   516.96     0  01:30           0        2.19       0.149
  YS02001898           JUNCTION      0.00   516.98     0  01:30           0        2.18      -0.035
  YS02001901           JUNCTION      0.00   517.15     0  01:30           0        2.19       0.149
  YS02001904           JUNCTION      0.00   517.09     0  01:31           0        2.21       0.123
  YS02001907           JUNCTION      0.00  1614.09     0  01:32           0        6.99       0.251
  YS02001910           JUNCTION      0.00  1099.00     0  01:32           0        4.78       0.153
  YS02001915           JUNCTION    720.94  1098.63     0  01:32        3.08        4.83       0.025
  YS02001918           JUNCTION      0.00   465.28     0  01:11           0        1.78       0.006
  YS02001920           JUNCTION      2.87   443.61     0  01:13      0.0827        1.76       0.028
  YS02001923           JUNCTION      0.04   492.97     0  01:11     0.00109        1.66      -0.081
  YS02001926           JUNCTION      0.05   777.98     0  01:12      0.0015        1.64       0.019
  YS02001929           JUNCTION    374.48   512.37     0  01:12        1.62        1.62      -0.039
  YS02006553           JUNCTION      0.00   784.25     0  02:13           0        4.27       0.284
  YS02006556           JUNCTION      0.00   784.15     0  02:14           0        4.29       0.183
  YS02006558           JUNCTION    762.44  1175.49     0  01:12        3.24        7.48       0.042
  YS02006561           JUNCTION      0.00  1177.26     0  01:12           0        7.42       0.003
  YS02163301           JUNCTION      0.00   972.85     0  02:26           0        5.25       0.029
  YS02163601           JUNCTION      0.11  1397.96     0  01:12     0.00317           8       0.065
  YS02164001           JUNCTION      0.00  1396.90     0  01:12           0        8.01       0.031
  YSB1154              JUNCTION    314.52   314.52     0  01:31        1.34        1.34       0.101
  YSB1171              JUNCTION      0.00   688.80     0  01:32           0        2.47       0.249
  YSB1174              JUNCTION    242.93   242.93     0  01:31        1.02        1.02       0.108
  YSB6556              JUNCTION      0.00   314.73     0  01:31           0        1.34       0.083
  CC-1                 OUTFALL       0.00  3415.00     0  01:05           0        9.46       0.000
  CC-2                 OUTFALL       0.00  3415.00     0  00:05           0        5.68       0.000
  JK-1                 OUTFALL       0.00  5000.00     0  01:20           0        3.84       0.000
  JK-2                 OUTFALL       0.00  5000.00     0  01:10           0        1.36       0.000
  WSC                  OUTFALL       0.00  1508.58     0  01:21           0        16.6       0.000
  CC-storage           STORAGE       0.00  3426.58     0  01:33           0        22.5      -0.094
  JK-storage           STORAGE       0.00  1377.53     0  01:20           0        7.61      -0.262
  XR-storage           STORAGE     200.00   200.00     0  00:00        5.76        6.36       0.001
  
  
  **********************
  Node Surcharge Summary
  **********************
  
  Surcharging occurs when water rises above the top of the highest conduit.
  ---------------------------------------------------------------------
                                               Max. Height   Min. Depth
                                   Hours       Above Crown    Below Rim
  Node                 Type      Surcharged         Meters       Meters
  ---------------------------------------------------------------------
  HS02004478           JUNCTION        1.35          0.813        0.127
  HS02004479           JUNCTION        1.53          1.050        0.000
  HS02004480           JUNCTION        1.60          0.988        0.112
  HS02004770           JUNCTION        1.47          0.720        0.000
  HS02004777           JUNCTION        1.47          0.780        0.000
  HS02004785           JUNCTION        1.40          0.790        0.000
  HS02004788           JUNCTION        1.39          0.720        0.000
  HS02004792           JUNCTION        1.55          0.900        0.000
  HS02004799           JUNCTION        1.90          1.060        0.000
  HS02004802           JUNCTION        1.60          1.095        0.115
  HS02004807           JUNCTION        1.57          1.220        0.000
  HS02004817           JUNCTION        2.07          1.740        0.000
  HS02004824           JUNCTION        1.37          1.310        0.000
  HS02004830           JUNCTION        1.33          1.330        0.000
  HS02004837           JUNCTION        1.26          1.340        0.000
  HS02004842           JUNCTION        1.45          1.520        0.000
  HS02004848           JUNCTION        1.23          1.370        0.000
  HS02004852           JUNCTION        1.24          1.420        0.000
  HS02004856           JUNCTION        1.23          1.300        0.000
  HS02004862           JUNCTION        1.27          1.300        0.000
  HS02004870           JUNCTION        1.29          1.400        0.000
  HS02004876           JUNCTION        1.37          1.560        0.000
  HS02004881           JUNCTION        1.32          1.450        0.000
  HS02004901           JUNCTION        1.48          0.720        0.000
  WS02004401           JUNCTION        2.17          1.660        0.000
  WS02004402           JUNCTION        2.18          1.740        0.000
  WS02004403           JUNCTION        2.18          2.030        0.000
  WS02004404           JUNCTION        2.24          2.312        0.468
  WS02004405           JUNCTION        2.23          2.265        0.535
  WS02004406           JUNCTION        2.22          2.450        0.000
  WS02004409           JUNCTION        1.92          0.502        1.858
  WS02004410           JUNCTION        1.90          0.449        2.091
  WS02004411           JUNCTION        1.88          0.434        2.096
  WS02004412           JUNCTION        1.84          0.282        2.028
  WS02004413           JUNCTION        2.02          1.075        1.125
  WS02006109           JUNCTION        2.41          1.820        0.000
  WS02006110           JUNCTION        2.29          1.850        0.000
  WS02006111           JUNCTION        2.02          1.598        0.272
  WS02006112           JUNCTION        2.34          1.680        0.000
  WS02006113           JUNCTION        2.03          1.825        0.105
  WS02006115           JUNCTION        2.10          1.772        0.478
  WS02006116           JUNCTION        2.11          1.784        0.506
  WS02006228           JUNCTION        2.41          2.200        0.000
  WS02006229           JUNCTION        1.93          1.070        0.000
  WS02006230           JUNCTION        2.23          1.570        0.000
  WS02006231           JUNCTION        2.22          1.530        0.000
  WS02006232           JUNCTION        2.27          1.480        0.000
  WS02006234           JUNCTION        2.21          1.240        0.000
  WS02006235           JUNCTION        2.20          1.290        0.000
  WS02006238           JUNCTION        2.21          1.430        0.000
  WS02006239           JUNCTION        2.19          1.290        0.000
  WS02006240           JUNCTION        2.17          1.390        0.000
  WS02006242           JUNCTION        2.18          0.820        0.000
  WS02006243           JUNCTION        2.13          0.770        0.000
  WS02006245           JUNCTION        2.11          0.850        0.000
  WS02006247           JUNCTION        2.12          0.760        0.000
  WS02006248           JUNCTION        2.08          0.380        0.000
  WS02006249           JUNCTION        2.08          0.390        0.000
  WS02006251           JUNCTION        1.95          1.180        0.000
  WS02006252           JUNCTION        2.16          1.100        0.000
  WS02006253           JUNCTION        1.98          2.337        0.143
  WS02006256           JUNCTION        6.80          2.050        0.000
  WS02006280           JUNCTION        1.88          0.746        0.034
  WS02006284           JUNCTION        1.64          0.717        0.083
  WS02006287           JUNCTION        1.45          0.890        0.000
  YS02001580           JUNCTION        1.57          0.450        0.000
  YS02001583           JUNCTION        1.58          0.500        0.000
  YS02001586           JUNCTION        1.86          0.510        0.000
  YS02001590           JUNCTION        1.92          0.750        0.000
  YS02001593           JUNCTION        1.92          0.786        0.054
  YS02001596           JUNCTION        1.97          1.004        0.066
  YS02001600           JUNCTION        2.03          1.190        0.000
  YS02001601           JUNCTION        2.20          1.440        0.000
  YS02001602           JUNCTION        2.14          1.270        0.000
  YS02001605           JUNCTION        2.12          1.180        0.000
  YS02001607           JUNCTION        1.84          0.680        0.000
  YS02001610           JUNCTION        1.86          0.680        0.000
  YS02001613           JUNCTION        1.83          0.700        0.000
  YS02001616           JUNCTION        1.68          0.610        0.000
  YS02001619           JUNCTION        1.63          0.610        0.000
  YS02001622           JUNCTION        1.61          0.586        0.034
  YS02001625           JUNCTION        1.92          0.780        0.000
  YS02001629           JUNCTION        1.35          0.470        0.000
  YS02001633           JUNCTION        1.92          1.033        0.027
  YS02001641           JUNCTION        1.85          1.005        0.095
  YS02001644           JUNCTION        1.66          0.920        0.000
  YS02001647           JUNCTION        1.07          0.856        0.044
  YS02001649           JUNCTION        1.17          1.050        0.000
  YS02001652           JUNCTION        0.88          1.130        0.000
  YS02001655           JUNCTION        0.66          1.200        0.000
  YS02001658           JUNCTION        0.40          0.991        0.309
  YS02001748           JUNCTION        0.02          0.415        0.775
  YS02001751           JUNCTION        0.42          0.765        0.435
  YS02001754           JUNCTION        0.70          0.968        0.182
  YS02001757           JUNCTION        1.14          1.156        0.054
  YS02001759           JUNCTION        1.01          1.120        0.090
  YS02001762           JUNCTION        0.97          1.088        0.062
  YS02001765           JUNCTION        0.92          1.048        0.052
  YS02001767           JUNCTION        0.89          1.010        0.020
  YS02001770           JUNCTION        0.86          0.920        0.000
  YS02001774           JUNCTION        0.99          1.050        0.000
  YS02001779           JUNCTION        0.74          0.680        0.000
  YS02001783           JUNCTION        1.38          0.510        1.090
  YS02001784           JUNCTION        1.35          0.460        1.030
  YS02001786           JUNCTION        1.10          0.111        1.319
  YS02001882           JUNCTION        1.27          0.830        0.000
  YS02001884           JUNCTION        1.30          0.870        0.000
  YS02001887           JUNCTION        1.37          0.950        0.000
  YS02001890           JUNCTION        1.39          0.760        0.000
  YS02001895           JUNCTION        1.23          0.580        0.170
  YS02001898           JUNCTION        1.21          0.740        0.000
  YS02001901           JUNCTION        1.35          0.701        0.169
  YS02001904           JUNCTION        1.33          0.654        0.196
  YS02001907           JUNCTION        1.86          0.950        0.000
  YS02001910           JUNCTION        1.42          0.974        0.126
  YS02001915           JUNCTION        1.28          0.922        0.078
  YS02001918           JUNCTION        1.09          0.810        0.000
  YS02001920           JUNCTION        1.11          1.100        0.040
  YS02001923           JUNCTION        0.01          0.820        0.000
  YS02001926           JUNCTION        0.01          0.900        0.000
  YS02001929           JUNCTION        0.01          0.780        0.000
  YS02006553           JUNCTION        1.89          1.190        0.000
  YS02006556           JUNCTION        1.53          1.313        0.037
  YS02006558           JUNCTION        1.51          0.995        0.405
  YS02006561           JUNCTION        1.04          0.193        0.957
  YS02163301           JUNCTION        1.91          0.980        0.050
  YS02163601           JUNCTION        1.93          1.080        0.000
  YS02164001           JUNCTION        1.86          1.031        0.069
  YSB1154              JUNCTION        1.95          1.276        0.124
  YSB1171              JUNCTION        1.95          1.100        0.000
  YSB1174              JUNCTION        1.92          1.130        0.120
  YSB6556              JUNCTION        1.76          1.100        0.000
  
  
  *********************
  Node Flooding Summary
  *********************
  
  Flooding refers to all water that overflows a node, whether it ponds or not.
  --------------------------------------------------------------------------
                                                             Total   Maximum
                                 Maximum   Time of Max       Flood    Ponded
                        Hours       Rate    Occurrence      Volume     Depth
  Node                 Flooded       LPS   days hr:min    10^6 ltr    Meters
  --------------------------------------------------------------------------
  HS02004479              0.01      1.93      0  01:18       0.000     0.000
  HS02004770              1.05    684.46      0  01:33       1.507     0.000
  HS02004777              0.01     15.04      0  01:08       0.000     0.000
  HS02004785              0.01     65.58      0  01:08       0.000     0.000
  HS02004788              0.01    378.96      0  01:08       0.002     0.000
  HS02004792              1.07   1199.70      0  01:34       2.959     0.000
  HS02004799              0.54     93.34      0  01:18       0.084     0.000
  HS02004807              0.01     32.02      0  01:11       0.000     0.000
  HS02004817              0.01      0.60      0  01:18       0.000     0.000
  HS02004824              0.01     18.78      0  01:11       0.000     0.000
  HS02004830              0.01     15.53      0  01:11       0.000     0.000
  HS02004837              0.01      1.22      0  01:18       0.000     0.000
  HS02004842              0.01    180.68      0  01:11       0.002     0.000
  HS02004848              0.01    129.62      0  01:11       0.000     0.000
  HS02004852              0.01     87.52      0  01:11       0.000     0.000
  HS02004856              0.01     31.44      0  01:11       0.000     0.000
  HS02004862              0.01    513.54      0  01:11       0.001     0.000
  HS02004870              0.01     91.23      0  01:11       0.000     0.000
  HS02004876              0.01     25.98      0  01:11       0.000     0.000
  HS02004881              0.01     29.25      0  01:11       0.000     0.000
  HS02004901              1.29    548.21      0  01:32       1.909     0.000
  WS02004401              0.01     34.47      0  01:09       0.000     0.000
  WS02004402              0.01     90.08      0  01:09       0.000     0.000
  WS02004403              0.01     44.67      0  01:09       0.000     0.000
  WS02004406              0.01    809.96      0  01:09       0.001     0.000
  WS02006109              1.22    232.84      0  01:32       0.670     0.000
  WS02006110              0.01    272.75      0  01:07       0.000     0.000
  WS02006112              0.01    132.80      0  01:09       0.001     0.000
  WS02006228              0.01     27.71      0  01:09       0.000     0.000
  WS02006229              0.01     81.85      0  01:09       0.000     0.000
  WS02006230              1.64    563.34      0  01:32       2.542     0.000
  WS02006231              0.01    113.52      0  01:07       0.000     0.000
  WS02006232              0.40    361.10      0  01:07       0.001     0.000
  WS02006234              1.85    129.34      0  01:26       0.612     0.000
  WS02006235              0.01     86.90      0  01:09       0.001     0.000
  WS02006238              0.01     61.12      0  01:08       0.000     0.000
  WS02006239              0.01    607.96      0  01:08       0.002     0.000
  WS02006240              0.01    840.41      0  01:09       0.003     0.000
  WS02006242              1.92    803.23      0  01:09       0.904     0.000
  WS02006243              0.01    563.06      0  01:09       0.008     0.000
  WS02006245              0.01    171.03      0  03:15       0.001     0.000
  WS02006247              0.01    246.18      0  01:09       0.001     0.000
  WS02006248              2.03    375.89      0  01:12       2.395     0.000
  WS02006249              2.04   1273.38      0  01:33       7.682     0.000
  WS02006251              0.01    284.94      0  02:46       0.001     0.000
  WS02006252              1.33   2086.32      0  01:24       4.730     0.000
  WS02006256              1.20   1496.77      0  02:55       1.920     0.000
  WS02006287              0.01      1.06      0  01:18       0.000     0.000
  YS02001580              0.01     86.31      0  01:09       0.000     0.000
  YS02001583              0.01    126.62      0  01:09       0.000     0.000
  YS02001586              1.33    355.71      0  01:36       0.934     0.000
  YS02001590              0.01     93.00      0  01:07       0.000     0.000
  YS02001600              0.01      9.10      0  01:18       0.000     0.000
  YS02001601              1.61    931.88      0  01:32       3.153     0.000
  YS02001602              1.18     62.02      0  01:41       0.248     0.000
  YS02001605              0.01     21.10      0  01:10       0.000     0.000
  YS02001607              0.01    125.73      0  01:10       0.000     0.000
  YS02001610              1.08    609.83      0  01:34       1.578     0.000
  YS02001613              0.01     76.43      0  01:10       0.000     0.000
  YS02001616              0.01     35.18      0  01:10       0.000     0.000
  YS02001619              0.01      9.69      0  01:10       0.000     0.000
  YS02001625              0.95   1132.09      0  01:33       2.182     0.000
  YS02001629              0.12    141.13      0  01:10       0.004     0.000
  YS02001644              0.18     88.84      0  01:18       0.013     0.000
  YS02001649              0.01      7.63      0  01:45       0.000     0.000
  YS02001652              0.01     14.86      0  01:45       0.000     0.000
  YS02001655              0.01     22.67      0  01:45       0.000     0.000
  YS02001770              0.01     11.44      0  01:26       0.000     0.000
  YS02001774              0.01      2.56      0  01:26       0.000     0.000
  YS02001779              0.04    198.32      0  01:13       0.002     0.000
  YS02001882              0.01     23.29      0  01:10       0.000     0.000
  YS02001884              0.01     17.68      0  01:10       0.000     0.000
  YS02001887              0.01      0.80      0  01:18       0.000     0.000
  YS02001890              0.28     36.86      0  01:18       0.003     0.000
  YS02001898              0.01      0.81      0  01:18       0.000     0.000
  YS02001907              1.00   1223.15      0  01:31       2.723     0.000
  YS02001918              0.01    105.51      0  01:13       0.001     0.000
  YS02001923              0.01     40.01      0  01:13       0.000     0.000
  YS02001926              0.01     42.97      0  01:13       0.000     0.000
  YS02001929              0.01    317.23      0  01:13       0.002     0.000
  YS02006553              0.01      0.36      0  01:18       0.000     0.000
  YS02163601              0.01     21.37      0  01:18       0.000     0.000
  YSB1171                 0.80    687.93      0  01:32       1.248     0.000
  YSB6556                 0.01     19.56      0  01:09       0.000     0.000
  
  
  **********************
  Storage Volume Summary
  **********************
  
  --------------------------------------------------------------------------------------------------
                         Average     Avg  Evap Exfil       Maximum     Max    Time of Max    Maximum
                          Volume    Pcnt  Pcnt  Pcnt        Volume    Pcnt     Occurrence    Outflow
  Storage Unit           1000 m3    Full  Loss  Loss       1000 m3    Full    days hr:min        LPS
  --------------------------------------------------------------------------------------------------
  CC-storage               1.576      25     0     0         2.737      43       0  02:20    7830.00
  JK-storage               0.091      31     0     0         0.213      73       0  01:48   11500.00
  XR-storage               0.944      66     0     0         1.111      77       0  08:00     380.00
  
  
  ***********************
  Outfall Loading Summary
  ***********************
  
  -----------------------------------------------------------
                         Flow       Avg       Max       Total
                         Freq      Flow      Flow      Volume
  Outfall Node           Pcnt       LPS       LPS    10^6 ltr
  -----------------------------------------------------------
  CC-1                  15.85   3274.50   3415.00       9.459
  CC-2                  10.47   3202.30   3415.00       5.684
  JK-1                  11.32   1777.60   5000.00       3.841
  JK-2                   1.67   4543.48   5000.00       1.362
  WSC                   99.95    798.14   1508.58      16.576
  -----------------------------------------------------------
  System                27.85  13596.02   1508.58      36.922
  
  
  ********************
  Link Flow Summary
  ********************
  
  -----------------------------------------------------------------------------
                                 Maximum  Time of Max   Maximum    Max/    Max/
                                  |Flow|   Occurrence   |Veloc|    Full    Full
  Link                 Type          LPS  days hr:min     m/sec    Flow   Depth
  -----------------------------------------------------------------------------
  1                    CONDUIT   1508.58     0  01:21      3.70    0.53    0.52
  HS02004478WS02006287 CONDUIT   2477.34     0  01:08      3.03    0.69    1.00
  HS02004479HS02004480 CONDUIT    441.43     0  01:10      0.63    0.43    1.00
  HS02004480HS02004478 CONDUIT   2284.41     0  01:09      3.26    9.62    1.00
  HS02004770HS02004777 CONDUIT    827.20     0  01:08      1.18    1.51    1.00
  HS02004777HS02004785 CONDUIT    829.87     0  01:08      1.30    1.02    1.00
  HS02004785HS02004788 CONDUIT    842.57     0  01:08      1.36    6.35    1.00
  HS02004788HS02004792 CONDUIT    946.03     0  01:09      1.46    0.63    1.00
  HS02004792HS02004799 CONDUIT   1746.75     0  01:09      2.50    1.07    1.00
  HS02004799HS02004480 CONDUIT   1918.92     0  01:09      2.74    2.42    1.00
  HS02004802HS02004478 CONDUIT   1079.56     0  01:33      1.54    0.95    1.00
  HS02004807HS02004802 CONDUIT   1078.55     0  01:33      1.54    2.06    1.00
  HS02004817HS02004807 CONDUIT    757.80     0  01:34      1.08    0.45    1.00
  HS02004817HS02004824 CONDUIT    756.91     0  01:33      1.08    0.34    1.00
  HS02004824HS02004830 CONDUIT    721.06     0  01:10      1.05    0.94    1.00
  HS02004830HS02004837 CONDUIT    744.06     0  01:10      1.16    0.74    1.00
  HS02004837HS02004842 CONDUIT    921.55     0  01:10      1.32    0.55    1.00
  HS02004842HS02004848 CONDUIT    919.42     0  01:10      1.49    0.54    1.00
  HS02004848HS02004852 CONDUIT   1069.07     0  01:10      1.68    1.21    1.00
  HS02004852HS02004856 CONDUIT   1013.74     0  01:11      1.51    1.16    1.00
  HS02004856HS02004862 CONDUIT   1108.63     0  01:11      1.74    1.11    1.00
  HS02004862HS02004870 CONDUIT   1056.00     0  01:11      1.70    1.14    1.00
  HS02004870HS02004876 CONDUIT   1157.80     0  01:33      1.65    0.77    1.00
  HS02004876HS02004881 CONDUIT   1341.51     0  01:33      2.77   14.27    1.00
  HS02004881HS02006253 CONDUIT   1435.16     0  01:33      2.93    0.28    1.00
  HS02004901HS02004770 CONDUIT    265.79     0  02:09      0.38    1.00    1.00
  WS02001211WS02001212 CONDUIT    317.76     0  01:18      0.54    0.24    0.72
  WS02001212WS02001213 CONDUIT    354.58     0  01:19      1.04    0.55    0.62
  WS02001213WS02003059 CONDUIT    328.99     0  01:13      0.48    0.54    0.92
  WS02003059WS02003060 CONDUIT    447.22     0  01:13      0.80    0.29    0.83
  WS02003060WS02003069 CONDUIT   1518.34     0  01:20      2.35    0.59    0.61
  WS02003066WSF200     CONDUIT   1287.43     0  01:12      3.75    0.22    0.40
  WS02003067WS02003066 CONDUIT   1280.76     0  01:23      2.03    0.41    0.57
  WS02003069WS02003072 CONDUIT   1508.86     0  01:21      1.90    0.73    0.66
  WS02003072WS02003073 CONDUIT   1507.22     0  01:20      2.05    3.26    0.62
  WS02004138WS02004139 CONDUIT    190.82     0  00:29      2.15    0.04    0.44
  WS02004139WS02001211 CONDUIT    375.94     0  01:16      0.54    0.48    0.63
  WS02004401WS02004402 CONDUIT   1416.44     0  01:09      1.81    1.70    1.00
  WS02004402WS02004403 CONDUIT   1403.01     0  01:09      1.79    2.02    1.00
  WS02004403WS02004404 CONDUIT   1391.94     0  01:09      1.77    1.01    1.00
  WS02004404WS02004405 CONDUIT   1392.51     0  01:09      1.77   13.64    1.00
  WS02004405WS02004406 CONDUIT   1460.94     0  01:09      1.87    2.88    1.00
  WS02004406WS02004407 CONDUIT   1330.79     0  01:09      2.41    0.59    0.94
  WS02004407WS02004409 CONDUIT   1422.79     0  01:10      2.80    0.50    0.94
  WS02004409WS02004410 CONDUIT   1477.11     0  01:10      2.05    1.91    1.00
  WS02004410WS02004411 CONDUIT   1344.67     0  01:11      2.01    1.84    1.00
  WS02004411WS02004412 CONDUIT   1278.85     0  01:32      1.86    1.82    1.00
  WS02004412WS02004413 CONDUIT   1303.52     0  01:11      1.80    0.87    1.00
  WS02004413WS02003067 CONDUIT   1278.80     0  01:30      1.99    0.55    0.76
  WS02006109WS02006110 CONDUIT   1325.14     0  01:09      2.64    2.55    1.00
  WS02006110WS02006113 CONDUIT   1328.37     0  01:09      2.64    1.21    1.00
  WS02006111WS02006112 CONDUIT   1298.81     0  01:09      2.58    0.62    1.00
  WS02006112WS02006115 CONDUIT   1439.38     0  01:09      1.83    0.85    1.00
  WS02006113WS02006111 CONDUIT   1332.32     0  01:09      2.91    1.60    1.00
  WS02006115WS02006116 CONDUIT   1410.18     0  01:09      1.80    1.81    1.00
  WS02006116WS02004401 CONDUIT   1409.24     0  01:09      1.79    1.94    1.00
  WS02006228WS02006109 CONDUIT   1320.88     0  01:09      2.63    5.77    1.00
  WS02006229WS02006228 CONDUIT   1318.30     0  01:09      2.62    4.37    1.00
  WS02006230WS02006229 CONDUIT   1006.05     0  01:32      2.61   22.39    1.00
  WS02006231WS02006230 CONDUIT    756.11     0  01:08      1.96   11.47    1.00
  WS02006232WS02006231 CONDUIT    755.77     0  01:08      2.00    1.58    1.00
  WS02006234WS02006232 CONDUIT    755.50     0  01:08      2.20    1.53    1.00
  WS02006235WS02006234 CONDUIT    779.56     0  01:08      2.06    8.22    1.00
  WS02006238WS02006235 CONDUIT    727.10     0  01:08      2.21    1.62    1.00
  WS02006239WS02006238 CONDUIT    729.71     0  01:08      2.33    2.33    1.00
  WS02006240WS02006239 CONDUIT    716.27     0  01:09      1.90    2.25    1.00
  WS02006242WS02006240 CONDUIT    498.66     0  01:09      1.31    1.98    1.00
  WS02006243WS02006242 CONDUIT    357.32     0  00:05      1.34    0.76    1.00
  WS02006245WS02006243 CONDUIT    446.08     0  01:09      1.39    1.32    1.00
  WS02006247WS02006245 CONDUIT    466.68     0  01:09      1.37    3.70    1.00
  WS02006248WS02006247 CONDUIT    481.31     0  01:09      1.38    1.05    1.00
  WS02006249WS02006248 CONDUIT    511.68     0  03:15      1.38    2.80    1.00
  WS02006251WS02006249 CONDUIT   1336.80     0  01:11      3.47    3.85    1.00
  WS02006252WS02006251 CONDUIT   1150.27     0  03:40    >50.00    4.22    1.00
  WS02006253WS02006251 CONDUIT   1456.94     0  01:33      3.79    4.37    1.00
  WS02006256WS02006235 CONDUIT    288.93     0  00:00      4.23    3.06    1.00
  WS02006280WS02006229 CONDUIT   2286.05     0  01:32      5.31    0.49    1.00
  WS02006284WS02006280 CONDUIT   2285.17     0  01:31      3.37    0.96    1.00
  WS02006287WS02006284 CONDUIT   2360.28     0  01:09      3.09    1.09    1.00
  WSF200WS02003060     CONDUIT   1509.01     0  01:12      3.36    0.33    0.51
  YS02001580YS02001583 CONDUIT    151.18     0  01:09      0.87    0.59    1.00
  YS02001583YS02001586 CONDUIT    181.00     0  01:09      0.87    0.27    1.00
  YS02001586YS02001590 CONDUIT    329.99     0  01:18      1.33    0.58    1.00
  YS02001590YS02001593 CONDUIT    323.07     0  01:18      1.14    2.03    1.00
  YS02001593YS02001596 CONDUIT    319.53     0  01:18      1.75    0.50    1.00
  YS02001596YS02001600 CONDUIT    319.40     0  01:18      1.26    0.62    1.00
  YS02001600YS02001601 CONDUIT    318.76     0  01:41      1.13    0.55    1.00
  YS02001601YS02001602 CONDUIT    606.31     0  01:09      2.14    2.19    1.00
  YS02001602YS02001605 CONDUIT    606.44     0  01:09      2.14   12.83    1.00
  YS02001605YS02001607 CONDUIT    606.33     0  01:09      2.14    3.32    1.00
  YS02001607YS02001610 CONDUIT    601.85     0  01:09      0.92    0.57    1.00
  YS02001610YS02001613 CONDUIT    572.07     0  01:09      0.83    0.66    1.00
  YS02001613YS02001616 CONDUIT    513.54     0  02:45      0.87    0.44    1.00
  YS02001616YS02001619 CONDUIT    513.50     0  02:45      0.92    0.89    1.00
  YS02001619YS02001622 CONDUIT    972.33     0  02:26      1.88    1.43    1.00
  YS02001622YS02001625 CONDUIT    972.55     0  02:26      1.25    0.52    1.00
  YS02001625YS02001629 CONDUIT    973.15     0  02:26      1.24    0.46    1.00
  YS02001629YS02163301 CONDUIT    972.85     0  02:26      1.24    1.20    1.00
  YS02001633YS02163601 CONDUIT   1397.85     0  01:12      1.78    1.47    1.00
  YS02001641YS02001644 CONDUIT   1392.95     0  01:12      1.77    4.50    1.00
  YS02001644YS02001647 CONDUIT   1839.50     0  01:12      2.36    1.08    1.00
  YS02001647YS02001649 CONDUIT   1835.79     0  01:12      2.36    0.97    1.00
  YS02001649YS02001757 CONDUIT   2263.46     0  01:12      2.88    1.37    1.00
  YS02001652YS02001649 CONDUIT    638.75     0  01:34      1.49    0.32    1.00
  YS02001655YS02001652 CONDUIT    640.58     0  01:34      1.94    0.31    1.00
  YS02001658YS02001655 CONDUIT    650.51     0  01:18      2.08    0.28    1.00
  YS02001661YS02001658 CONDUIT    887.57     0  01:49      2.35    0.35    0.89
  YS02001664YS02001661 CONDUIT    613.06     0  01:32      2.29    0.19    0.57
  YS02001745YS02001748 CONDUIT    706.67     0  01:22      2.23    0.27    0.72
  YS02001748YS02001751 CONDUIT    544.63     0  01:14      1.82    0.28    1.00
  YS02001751YS02001754 CONDUIT    534.97     0  01:18      1.78    0.26    1.00
  YS02001754YS02001757 CONDUIT    526.29     0  01:18      1.18    0.21    1.00
  YS02001757CaochengTiaoxuchi CONDUIT   3426.58     0  01:33      5.40    1.48    0.99
  YS02001759YS02001757 CONDUIT   1290.71     0  01:30      1.64    0.92    1.00
  YS02001762YS02001759 CONDUIT    781.52     0  01:30      1.00    0.90    1.00
  YS02001765YS02001762 CONDUIT    779.09     0  01:30      0.99    0.73    1.00
  YS02001767YS02001765 CONDUIT    776.60     0  01:30      0.99    0.98    1.00
  YS02001770YS02001767 CONDUIT    773.86     0  01:30      1.00    3.07    1.00
  YS02001774YS02001770 CONDUIT    273.59     0  01:13      0.81    0.17    1.00
  YS02001779YS02001774 CONDUIT    270.80     0  01:13      0.35    0.14    1.00
  YS02001783YS02001784 CONDUIT   1166.24     0  01:18      2.32    1.61    1.00
  YS02001784YS02001785 CONDUIT   1164.80     0  01:18      2.32    2.71    1.00
  YS02001786YS02001788 CONDUIT   1167.50     0  01:18      2.48    2.25    0.89
  YS02001788YS02001790 CONDUIT   1166.49     0  01:36      2.71    0.86    0.84
  YS02001790YS02001791 CONDUIT   1289.20     0  01:29      3.44    1.40    0.70
  YS02001791YS02001793 CONDUIT   1248.38     0  01:31      6.80    0.54    0.45
  YS02001793JiankangQianchi CONDUIT   1377.53     0  01:20      2.94    0.11    0.65
  YS02001882YS02001884 CONDUIT    113.19     0  01:09      0.47    0.13    1.00
  YS02001884YS02001887 CONDUIT    200.40     0  01:09      0.42    0.27    1.00
  YS02001887YS02001890 CONDUIT    521.33     0  01:29      0.66    0.89    1.00
  YS02001890YS02001895 CONDUIT    516.96     0  01:30      0.66    0.24    1.00
  YS02001895YS02001898 CONDUIT    516.98     0  01:30      0.77    0.90    1.00
  YS02001898YS02001901 CONDUIT    517.15     0  01:30      0.66    0.33    1.00
  YS02001901YS02001904 CONDUIT    517.09     0  01:31      0.71    0.80    1.00
  YS02001904YS02001907 CONDUIT    519.15     0  01:29      0.66    0.18    1.00
  YS02001907YS02006553 CONDUIT    784.25     0  02:13      0.87    0.92    1.00
  YS02001910YS02001907 CONDUIT   1098.72     0  01:32      1.40    0.62    1.00
  YS02001915YS02001910 CONDUIT   1099.00     0  01:32      1.40    0.55    1.00
  YS02001918YS02001915 CONDUIT    465.28     0  01:11      0.66    0.26    1.00
  YS02001920YS02001918 CONDUIT    444.86     0  01:13      0.77    0.43    1.00
  YS02001923YS02001920 CONDUIT    440.74     0  01:13      0.88    0.20    1.00
  YS02001926YS02001923 CONDUIT    416.93     0  01:12      0.98    0.60    1.00
  YS02001929YS02001926 CONDUIT    404.17     0  01:13      1.14    0.19    1.00
  YS02006553YS02006556 CONDUIT    784.15     0  02:14      1.00    0.67    1.00
  YS02006556YS02006558 CONDUIT    786.28     0  02:14      1.00    0.62    1.00
  YS02006558YS02006561 CONDUIT   1177.26     0  01:12      4.16    2.60    1.00
  YS02006561YS02001783 CONDUIT   1157.06     0  01:18      2.30    0.60    1.00
  YS02163301YS02001633 CONDUIT    972.61     0  02:26      1.24    0.91    1.00
  YS02163601YS02164001 CONDUIT   1396.90     0  01:12      1.78    1.24    1.00
  YS02164001YS02001641 CONDUIT   1394.43     0  01:12      1.78    1.90    1.00
  YSB1154YSB6556       CONDUIT    314.73     0  01:31      0.82    0.57    1.00
  YSB1171HS02004479    CONDUIT    440.21     0  01:11      0.88    0.29    1.00
  YSB1174YSB1171       CONDUIT    243.44     0  01:30      0.63    0.37    1.00
  YSB6556YSB1171       CONDUIT    315.07     0  01:30      0.82    0.32    1.00
  CC-R1                PUMP      3415.00     0  01:05              5.00
  CC-R2                PUMP      3415.00     0  00:05              5.00
  CC-S1                PUMP      1000.00     0  01:05              5.00
  CC-S2                PUMP      1000.00     0  01:05              5.00
  JK-R1                PUMP      5000.00     0  01:20              5.00
  JK-R2                PUMP      5000.00     0  01:10              5.00
  JK-S                 PUMP      1500.00     0  00:20              5.00
  XR-1                 PUMP        95.00     0  00:00              1.00
  XR-2                 PUMP        95.00     0  00:00              1.00
  XR-3                 PUMP        95.00     0  00:00              1.00
  XR-4                 PUMP        95.00     0  00:00              1.00
  
  
  ***************************
  Flow Classification Summary
  ***************************
  
  -------------------------------------------------------------------------------------
                      Adjusted    ---------- Fraction of Time in Flow Class ---------- 
                       /Actual         Up    Down  Sub   Sup   Up    Down  Norm  Inlet 
  Conduit               Length    Dry  Dry   Dry   Crit  Crit  Crit  Crit  Ltd   Ctrl  
  -------------------------------------------------------------------------------------
  1                       1.00   0.00  0.00  0.00  0.00  1.00  0.00  0.00  0.45  0.00
  HS02004478WS02006287    1.00   0.08  0.00  0.00  0.76  0.16  0.00  0.00  0.56  0.00
  HS02004479HS02004480    1.00   0.03  0.00  0.00  0.97  0.00  0.00  0.00  0.09  0.00
  HS02004480HS02004478    1.00   0.08  0.00  0.00  0.73  0.00  0.00  0.20  0.00  0.00
  HS02004770HS02004777    1.00   0.00  0.07  0.00  0.93  0.00  0.00  0.00  0.00  0.00
  HS02004777HS02004785    1.00   0.00  0.00  0.00  1.00  0.00  0.00  0.00  0.09  0.00
  HS02004785HS02004788    1.00   0.00  0.00  0.00  1.00  0.00  0.00  0.00  0.00  0.00
  HS02004788HS02004792    1.00   0.00  0.00  0.00  0.99  0.01  0.00  0.00  0.78  0.00
  HS02004792HS02004799    1.00   0.00  0.00  0.00  0.99  0.01  0.00  0.00  0.74  0.00
  HS02004799HS02004480    1.00   0.00  0.03  0.00  0.92  0.00  0.05  0.00  0.00  0.00
  HS02004802HS02004478    1.00   0.07  0.00  0.00  0.92  0.00  0.00  0.00  0.00  0.00
  HS02004807HS02004802    1.00   0.07  0.00  0.00  0.92  0.00  0.00  0.00  0.00  0.00
  HS02004817HS02004807    1.00   0.00  0.07  0.00  0.93  0.00  0.00  0.00  0.01  0.00
  HS02004817HS02004824    1.00   0.00  0.00  0.00  1.00  0.00  0.00  0.00  0.73  0.00
  HS02004824HS02004830    1.00   0.00  0.00  0.00  1.00  0.00  0.00  0.00  0.00  0.00
  HS02004830HS02004837    1.00   0.00  0.00  0.00  1.00  0.00  0.00  0.00  0.74  0.00
  HS02004837HS02004842    1.00   0.00  0.00  0.00  1.00  0.00  0.00  0.00  0.11  0.00
  HS02004842HS02004848    1.00   0.00  0.07  0.00  0.93  0.00  0.00  0.00  0.51  0.00
  HS02004848HS02004852    1.00   0.07  0.00  0.00  0.92  0.00  0.00  0.00  0.62  0.00
  HS02004852HS02004856    1.00   0.07  0.00  0.00  0.92  0.00  0.00  0.00  0.60  0.00
  HS02004856HS02004862    1.00   0.00  0.08  0.00  0.92  0.00  0.00  0.00  0.63  0.00
  HS02004862HS02004870    1.00   0.00  0.00  0.00  1.00  0.00  0.00  0.00  0.01  0.00
  HS02004870HS02004876    1.00   0.00  0.00  0.00  0.99  0.01  0.00  0.00  0.72  0.00
  HS02004876HS02004881    1.00   0.02  0.00  0.00  0.84  0.14  0.00  0.00  0.00  0.00
  HS02004881HS02006253    1.00   0.03  0.01  0.00  0.46  0.03  0.00  0.46  0.07  0.00
  HS02004901HS02004770    1.00   0.07  0.00  0.00  0.93  0.00  0.00  0.00  0.00  0.00
  WS02001211WS02001212    1.00   0.00  0.02  0.00  0.98  0.00  0.00  0.00  0.00  0.00
  WS02001212WS02001213    1.00   0.02  0.00  0.00  0.54  0.00  0.43  0.00  0.00  0.00
  WS02001213WS02003059    1.00   0.00  0.00  0.00  0.99  0.00  0.00  0.00  0.00  0.00
  WS02003059WS02003060    1.00   0.00  0.00  0.00  1.00  0.00  0.00  0.00  0.03  0.00
  WS02003060WS02003069    1.00   0.00  0.00  0.00  0.99  0.01  0.00  0.00  0.45  0.00
  WS02003066WSF200        1.00   0.07  0.00  0.00  0.00  0.93  0.00  0.00  0.58  0.00
  WS02003067WS02003066    1.00   0.06  0.01  0.00  0.93  0.00  0.00  0.00  0.00  0.00
  WS02003069WS02003072    1.00   0.00  0.00  0.00  1.00  0.00  0.00  0.00  0.63  0.00
  WS02003072WS02003073    1.00   0.00  0.00  0.00  0.00  0.00  0.00  1.00  0.00  0.00
  WS02004138WS02004139    1.00   0.00  0.00  0.00  0.97  0.01  0.00  0.01  0.98  0.00
  WS02004139WS02001211    1.00   0.00  0.00  0.00  0.99  0.00  0.00  0.00  0.00  0.00
  WS02004401WS02004402    1.00   0.02  0.00  0.00  0.97  0.00  0.00  0.00  0.00  0.00
  WS02004402WS02004403    1.00   0.03  0.00  0.00  0.97  0.00  0.00  0.00  0.00  0.00
  WS02004403WS02004404    1.00   0.00  0.03  0.00  0.97  0.00  0.00  0.00  0.00  0.00
  WS02004404WS02004405    1.00   0.00  0.00  0.00  1.00  0.00  0.00  0.00  0.00  0.00
  WS02004405WS02004406    1.00   0.00  0.00  0.00  1.00  0.00  0.00  0.00  0.00  0.00
  WS02004406WS02004407    1.00   0.00  0.04  0.00  0.96  0.00  0.00  0.00  0.00  0.00
  WS02004407WS02004409    1.00   0.04  0.00  0.00  0.95  0.01  0.00  0.00  0.70  0.00
  WS02004409WS02004410    1.00   0.04  0.00  0.00  0.96  0.00  0.00  0.00  0.03  0.00
  WS02004410WS02004411    1.00   0.04  0.00  0.00  0.96  0.00  0.00  0.00  0.01  0.00
  WS02004411WS02004412    1.00   0.04  0.00  0.00  0.96  0.00  0.00  0.00  0.00  0.00
  WS02004412WS02004413    1.00   0.04  0.00  0.00  0.95  0.00  0.00  0.00  0.01  0.00
  WS02004413WS02003067    1.00   0.05  0.02  0.00  0.00  0.00  0.94  0.00  0.00  0.00
  WS02006109WS02006110    1.00   0.00  0.01  0.00  0.98  0.00  0.01  0.00  0.00  0.00
  WS02006110WS02006113    1.00   0.01  0.01  0.00  0.98  0.00  0.00  0.00  0.00  0.00
  WS02006111WS02006112    1.00   0.02  0.00  0.00  0.98  0.00  0.00  0.00  0.70  0.00
  WS02006112WS02006115    1.00   0.02  0.00  0.00  0.97  0.00  0.00  0.00  0.00  0.00
  WS02006113WS02006111    1.00   0.02  0.00  0.00  0.44  0.54  0.00  0.00  0.06  0.00
  WS02006115WS02006116    1.00   0.02  0.00  0.00  0.97  0.00  0.00  0.01  0.00  0.00
  WS02006116WS02004401    1.00   0.02  0.00  0.00  0.98  0.00  0.00  0.00  0.00  0.00
  WS02006228WS02006109    1.00   0.00  0.00  0.00  1.00  0.00  0.00  0.00  0.00  0.00
  WS02006229WS02006228    1.00   0.00  0.00  0.00  0.99  0.00  0.00  0.01  0.00  0.00
  WS02006230WS02006229    1.00   0.00  0.00  0.00  0.98  0.00  0.00  0.02  0.03  0.00
  WS02006231WS02006230    1.00   0.00  0.00  0.00  0.55  0.00  0.45  0.00  0.00  0.00
  WS02006232WS02006231    1.00   0.00  0.00  0.00  0.99  0.00  0.00  0.00  0.00  0.00
  WS02006234WS02006232    1.00   0.00  0.00  0.00  1.00  0.00  0.00  0.00  0.04  0.00
  WS02006235WS02006234    1.00   0.00  0.00  0.00  0.91  0.00  0.08  0.00  0.00  0.00
  WS02006238WS02006235    1.00   0.00  0.00  0.00  1.00  0.00  0.00  0.00  0.00  0.00
  WS02006239WS02006238    1.00   0.00  0.00  0.00  1.00  0.00  0.00  0.00  0.17  0.00
  WS02006240WS02006239    1.00   0.00  0.00  0.00  0.77  0.00  0.00  0.23  0.02  0.00
  WS02006242WS02006240    1.00   0.00  0.00  0.00  0.98  0.00  0.02  0.00  0.00  0.00
  WS02006243WS02006242    1.00   0.00  0.00  0.00  0.99  0.00  0.00  0.01  0.62  0.00
  WS02006245WS02006243    1.00   0.00  0.00  0.00  0.91  0.00  0.00  0.08  0.00  0.00
  WS02006247WS02006245    1.00   0.00  0.00  0.00  0.97  0.00  0.00  0.03  0.00  0.00
  WS02006248WS02006247    1.00   0.00  0.00  0.00  0.99  0.00  0.00  0.01  0.56  0.00
  WS02006249WS02006248    1.00   0.00  0.00  0.00  0.67  0.00  0.33  0.00  0.00  0.00
  WS02006251WS02006249    1.00   0.00  0.00  0.00  0.99  0.01  0.00  0.00  0.57  0.00
  WS02006252WS02006251    1.00   0.32  0.18  0.00  0.43  0.01  0.06  0.00  0.00  0.00
  WS02006253WS02006251    1.00   0.00  0.00  0.00  0.98  0.00  0.02  0.00  0.01  0.00
  WS02006256WS02006235    1.00   0.00  0.00  0.00  0.99  0.01  0.00  0.00  0.00  0.00
  WS02006280WS02006229    1.00   0.08  0.00  0.00  0.42  0.02  0.00  0.48  0.00  0.00
  WS02006284WS02006280    1.00   0.08  0.00  0.00  0.40  0.01  0.00  0.52  0.00  0.00
  WS02006287WS02006284    1.00   0.06  0.01  0.00  0.68  0.23  0.00  0.01  0.62  0.00
  WSF200WS02003060        1.00   0.00  0.07  0.00  0.42  0.51  0.00  0.00  0.55  0.00
  YS02001580YS02001583    1.00   0.09  0.36  0.00  0.55  0.00  0.00  0.00  0.62  0.00
  YS02001583YS02001586    1.00   0.23  0.17  0.00  0.59  0.00  0.00  0.00  0.62  0.00
  YS02001586YS02001590    1.00   0.07  0.00  0.00  0.68  0.02  0.00  0.22  0.27  0.00
  YS02001590YS02001593    1.00   0.07  0.00  0.00  0.41  0.00  0.51  0.00  0.00  0.00
  YS02001593YS02001596    1.00   0.08  0.00  0.00  0.43  0.01  0.00  0.49  0.01  0.00
  YS02001596YS02001600    1.00   0.08  0.00  0.00  0.48  0.02  0.00  0.43  0.02  0.00
  YS02001600YS02001601    1.00   0.07  0.00  0.00  0.92  0.00  0.00  0.00  0.54  0.00
  YS02001601YS02001602    1.00   0.07  0.00  0.00  0.92  0.00  0.00  0.00  0.00  0.00
  YS02001602YS02001605    1.00   0.08  0.00  0.00  0.92  0.00  0.00  0.00  0.00  0.00
  YS02001605YS02001607    1.00   0.08  0.00  0.00  0.92  0.00  0.00  0.00  0.00  0.00
  YS02001607YS02001610    1.00   0.08  0.00  0.00  0.92  0.00  0.00  0.00  0.00  0.00
  YS02001610YS02001613    1.00   0.08  0.00  0.00  0.92  0.00  0.00  0.00  0.00  0.00
  YS02001613YS02001616    1.00   0.07  0.00  0.00  0.92  0.00  0.00  0.00  0.00  0.00
  YS02001616YS02001619    1.00   0.07  0.00  0.00  0.93  0.00  0.00  0.00  0.00  0.00
  YS02001619YS02001622    1.00   0.07  0.00  0.00  0.92  0.01  0.00  0.00  0.26  0.00
  YS02001622YS02001625    1.00   0.07  0.00  0.00  0.92  0.00  0.00  0.00  0.00  0.00
  YS02001625YS02001629    1.00   0.07  0.01  0.00  0.44  0.00  0.48  0.00  0.00  0.00
  YS02001629YS02163301    1.00   0.08  0.00  0.00  0.92  0.00  0.00  0.00  0.00  0.00
  YS02001633YS02163601    1.00   0.00  0.01  0.00  0.99  0.00  0.00  0.00  0.12  0.00
  YS02001641YS02001644    1.00   0.00  0.00  0.00  0.99  0.00  0.00  0.00  0.00  0.00
  YS02001644YS02001647    1.00   0.00  0.08  0.00  0.92  0.00  0.00  0.00  0.00  0.00
  YS02001647YS02001649    1.00   0.00  0.08  0.00  0.61  0.31  0.00  0.00  0.54  0.00
  YS02001649YS02001757    1.00   0.00  0.00  0.00  0.59  0.41  0.00  0.00  0.44  0.00
  YS02001652YS02001649    1.00   0.00  0.00  0.00  0.99  0.01  0.00  0.00  0.67  0.00
  YS02001655YS02001652    1.00   0.00  0.00  0.00  0.47  0.01  0.00  0.52  0.07  0.00
  YS02001658YS02001655    1.00   0.00  0.08  0.00  0.61  0.32  0.00  0.00  0.70  0.00
  YS02001661YS02001658    1.00   0.08  0.00  0.00  0.42  0.51  0.00  0.00  0.74  0.00
  YS02001664YS02001661    1.00   0.07  0.00  0.00  0.60  0.32  0.00  0.00  0.86  0.00
  YS02001745YS02001748    1.00   0.00  0.00  0.00  0.14  0.04  0.00  0.82  0.06  0.00
  YS02001748YS02001751    1.00   0.00  0.00  0.00  0.69  0.31  0.00  0.00  0.81  0.00
  YS02001751YS02001754    1.00   0.00  0.00  0.00  0.41  0.01  0.00  0.58  0.08  0.00
  YS02001754YS02001757    1.00   0.00  0.00  0.00  1.00  0.00  0.00  0.00  0.74  0.00
  YS02001757CaochengTiaoxuchi    1.00   0.00  0.00  0.00  0.57  0.43  0.00  0.00  0.81  0.00
  YS02001759YS02001757    1.00   0.00  0.00  0.00  1.00  0.00  0.00  0.00  0.58  0.00
  YS02001762YS02001759    1.00   0.00  0.00  0.00  1.00  0.00  0.00  0.00  0.02  0.00
  YS02001765YS02001762    1.00   0.00  0.00  0.00  1.00  0.00  0.00  0.00  0.68  0.00
  YS02001767YS02001765    1.00   0.00  0.00  0.00  1.00  0.00  0.00  0.00  0.00  0.00
  YS02001770YS02001767    1.00   0.00  0.00  0.00  1.00  0.00  0.00  0.00  0.00  0.00
  YS02001774YS02001770    1.00   0.00  0.07  0.00  0.83  0.00  0.09  0.00  0.00  0.00
  YS02001779YS02001774    1.00   0.00  0.00  0.00  1.00  0.00  0.00  0.00  0.72  0.00
  YS02001783YS02001784    1.00   0.00  0.08  0.00  0.92  0.00  0.00  0.00  0.53  0.00
  YS02001784YS02001785    1.00   0.00  0.00  0.00  1.00  0.00  0.00  0.00  0.12  0.00
  YS02001786YS02001788    1.00   0.00  0.00  0.00  0.69  0.31  0.00  0.00  0.00  0.00
  YS02001788YS02001790    1.00   0.00  0.00  0.00  0.20  0.80  0.00  0.00  0.74  0.00
  YS02001790YS02001791    1.00   0.00  0.00  0.00  0.01  0.99  0.00  0.00  0.14  0.00
  YS02001791YS02001793    1.00   0.00  0.00  0.00  0.00  1.00  0.00  0.00  0.03  0.00
  YS02001793JiankangQianchi    1.00   0.00  0.00  0.00  0.90  0.10  0.00  0.00  0.92  0.00
  YS02001882YS02001884    1.00   0.08  0.00  0.00  0.92  0.00  0.00  0.00  0.00  0.00
  YS02001884YS02001887    1.00   0.05  0.02  0.00  0.93  0.00  0.00  0.00  0.00  0.00
  YS02001887YS02001890    1.00   0.00  0.00  0.00  0.97  0.00  0.03  0.00  0.00  0.00
  YS02001890YS02001895    1.00   0.00  0.07  0.00  0.92  0.00  0.00  0.00  0.00  0.00
  YS02001895YS02001898    1.00   0.08  0.00  0.00  0.92  0.00  0.00  0.00  0.00  0.00
  YS02001898YS02001901    1.00   0.08  0.00  0.00  0.92  0.00  0.00  0.00  0.00  0.00
  YS02001901YS02001904    1.00   0.08  0.00  0.00  0.92  0.00  0.00  0.00  0.00  0.00
  YS02001904YS02001907    1.00   0.00  0.07  0.00  0.92  0.00  0.00  0.00  0.00  0.00
  YS02001907YS02006553    1.00   0.00  0.02  0.00  0.98  0.00  0.00  0.00  0.00  0.00
  YS02001910YS02001907    1.00   0.00  0.00  0.00  0.97  0.00  0.00  0.02  0.10  0.00
  YS02001915YS02001910    1.00   0.00  0.00  0.00  0.98  0.02  0.00  0.00  0.10  0.00
  YS02001918YS02001915    1.00   0.00  0.00  0.00  0.98  0.02  0.00  0.00  0.63  0.00
  YS02001920YS02001918    1.00   0.00  0.00  0.00  1.00  0.00  0.00  0.00  0.00  0.00
  YS02001923YS02001920    1.00   0.00  0.00  0.00  1.00  0.00  0.00  0.00  0.82  0.00
  YS02001926YS02001923    1.00   0.00  0.05  0.00  0.24  0.00  0.71  0.00  0.00  0.00
  YS02001929YS02001926    1.00   0.00  0.07  0.00  0.92  0.00  0.00  0.00  0.73  0.00
  YS02006553YS02006556    1.00   0.01  0.00  0.00  0.99  0.00  0.00  0.00  0.03  0.00
  YS02006556YS02006558    1.00   0.00  0.00  0.00  1.00  0.00  0.00  0.00  0.00  0.00
  YS02006558YS02006561    1.00   0.08  0.00  0.00  0.22  0.71  0.00  0.00  0.13  0.00
  YS02006561YS02001783    1.00   0.08  0.00  0.00  0.29  0.63  0.00  0.00  0.61  0.00
  YS02163301YS02001633    1.00   0.00  0.08  0.00  0.92  0.00  0.00  0.00  0.00  0.00
  YS02163601YS02164001    1.00   0.00  0.06  0.00  0.94  0.00  0.00  0.00  0.00  0.00
  YS02164001YS02001641    1.00   0.01  0.05  0.00  0.94  0.00  0.00  0.00  0.05  0.00
  YSB1154YSB6556          1.00   0.07  0.00  0.00  0.93  0.00  0.00  0.00  0.00  0.00
  YSB1171HS02004479       1.00   0.04  0.00  0.00  0.96  0.00  0.00  0.01  0.08  0.00
  YSB1174YSB1171          1.00   0.04  0.02  0.00  0.94  0.00  0.00  0.00  0.00  0.00
  YSB6556YSB1171          1.00   0.04  0.04  0.00  0.93  0.00  0.00  0.00  0.00  0.00
  
  
  *************************
  Conduit Surcharge Summary
  *************************
  
  ----------------------------------------------------------------------------
                                                           Hours        Hours 
                         --------- Hours Full --------   Above Full   Capacity
  Conduit                Both Ends  Upstream  Dnstream   Normal Flow   Limited
  ----------------------------------------------------------------------------
  HS02004478WS02006287        1.35      1.35      1.57      0.01         0.01
  HS02004479HS02004480        1.60      1.60      1.64      0.01         0.01
  HS02004480HS02004478        1.47      1.60      1.47      2.25         1.47
  HS02004770HS02004777        1.47      1.47      1.47      0.27         0.22
  HS02004777HS02004785        1.40      1.40      1.47      0.01         0.01
  HS02004785HS02004788        1.39      1.40      1.39      2.11         1.30
  HS02004788HS02004792        1.39      1.39      1.55      0.01         0.01
  HS02004792HS02004799        1.55      1.55      1.90      0.01         0.02
  HS02004799HS02004480        1.60      1.60      1.90      1.95         0.01
  HS02004802HS02004478        1.48      1.48      1.62      0.01         0.01
  HS02004807HS02004802        1.57      1.57      1.60      0.76         0.77
  HS02004817HS02004807        1.57      1.57      2.07      0.01         0.01
  HS02004817HS02004824        1.37      1.37      2.07      0.01         0.01
  HS02004824HS02004830        1.33      1.33      1.37      0.01         0.01
  HS02004830HS02004837        1.26      1.26      1.33      0.01         0.01
  HS02004837HS02004842        1.26      1.26      1.45      0.01         0.01
  HS02004842HS02004848        1.23      1.23      1.45      0.01         0.01
  HS02004848HS02004852        1.23      1.23      1.24      0.02         0.01
  HS02004852HS02004856        1.24      1.24      1.27      0.01         0.01
  HS02004856HS02004862        1.23      1.23      1.27      0.01         0.01
  HS02004862HS02004870        1.27      1.27      1.29      0.72         0.62
  HS02004870HS02004876        1.29      1.29      1.37      0.01         0.01
  HS02004876HS02004881        1.32      1.37      1.32      2.16         1.32
  HS02004881HS02006253        1.32      1.32      1.98      0.01         0.01
  HS02004901HS02004770        1.47      1.47      1.48      0.61         0.01
  WS02003072WS02003073        0.01      0.01      0.01      2.66         0.01
  WS02004401WS02004402        2.17      2.17      2.18      2.08         2.04
  WS02004402WS02004403        2.18      2.18      2.18      2.17         2.14
  WS02004403WS02004404        2.18      2.18      2.24      0.01         0.05
  WS02004404WS02004405        2.23      2.24      2.23      3.17         2.23
  WS02004405WS02004406        2.22      2.23      2.22      2.31         2.22
  WS02004406WS02004407        0.01      0.01      2.22      0.01         0.01
  WS02004407WS02004409        0.01      0.01      1.92      0.01         0.01
  WS02004409WS02004410        1.90      1.92      1.90      2.09         1.90
  WS02004410WS02004411        1.88      1.90      1.88      2.14         1.88
  WS02004411WS02004412        1.84      1.88      1.84      2.16         1.84
  WS02004412WS02004413        1.84      1.84      2.02      0.01         0.01
  WS02004413WS02003067        0.01      0.01      2.02      0.01         0.01
  WS02006109WS02006110        2.29      2.29      2.43      2.29         0.01
  WS02006110WS02006113        2.03      2.03      2.42      0.65         0.01
  WS02006111WS02006112        2.02      2.02      2.56      0.01         0.01
  WS02006112WS02006115        2.09      2.09      2.34      0.01         0.01
  WS02006113WS02006111        2.02      2.03      2.02      2.08         2.02
  WS02006115WS02006116        2.10      2.11      2.11      2.11         2.08
  WS02006116WS02004401        2.16      2.16      2.17      2.16         2.13
  WS02006228WS02006109        2.41      2.43      2.41      2.59         2.41
  WS02006229WS02006228        2.41      2.42      2.41      2.52         2.41
  WS02006230WS02006229        2.45      2.45      2.45      3.59         0.46
  WS02006231WS02006230        2.22      2.23      2.22      2.90         1.97
  WS02006232WS02006231        2.22      2.22      2.27      0.04         0.35
  WS02006234WS02006232        2.21      2.21      2.27      0.03         0.01
  WS02006235WS02006234        2.20      2.21      2.20      2.58         1.94
  WS02006238WS02006235        2.20      2.21      2.22      0.02         0.72
  WS02006239WS02006238        2.20      2.20      2.21      1.92         0.02
  WS02006240WS02006239        2.18      2.18      2.19      1.92         0.01
  WS02006242WS02006240        2.17      2.17      2.19      2.00         1.90
  WS02006243WS02006242        2.14      2.14      2.18      0.01         0.01
  WS02006245WS02006243        2.12      2.12      2.13      0.05         0.01
  WS02006247WS02006245        2.11      2.12      2.11      2.30         0.13
  WS02006248WS02006247        2.09      2.09      2.12      0.01         0.01
  WS02006249WS02006248        2.08      2.08      2.08      0.27         0.01
  WS02006251WS02006249        2.08      2.10      2.08      2.05         1.89
  WS02006252WS02006251        2.07      3.73      2.14      0.70         0.01
  WS02006253WS02006251        2.08      2.09      2.11      1.91         0.06
  WS02006256WS02006235        2.65      2.68      6.72      0.15         0.01
  WS02006280WS02006229        1.89      1.89      1.93      0.01         0.01
  WS02006284WS02006280        1.64      1.64      1.88      0.01         0.01
  WS02006287WS02006284        1.45      1.45      1.68      0.85         0.85
  YS02001580YS02001583        1.57      1.57      1.63      0.01         0.01
  YS02001583YS02001586        1.58      1.58      1.86      0.01         0.01
  YS02001586YS02001590        1.87      1.87      1.92      0.01         0.01
  YS02001590YS02001593        1.92      1.92      1.93      1.94         0.01
  YS02001593YS02001596        1.92      1.92      1.97      0.01         0.01
  YS02001596YS02001600        1.99      1.99      2.03      0.01         0.01
  YS02001600YS02001601        2.06      2.06      2.20      0.01         0.01
  YS02001601YS02001602        2.14      2.14      2.23      2.05         0.01
  YS02001602YS02001605        2.12      2.12      2.14      2.74         0.01
  YS02001605YS02001607        2.09      2.12      2.09      2.17         2.09
  YS02001607YS02001610        1.84      1.84      1.86      0.01         0.01
  YS02001610YS02001613        1.83      1.83      1.86      0.01         0.01
  YS02001613YS02001616        1.67      1.67      1.83      0.01         0.01
  YS02001616YS02001619        1.63      1.63      1.67      0.01         0.04
  YS02001619YS02001622        1.61      1.63      1.61      1.94         1.57
  YS02001622YS02001625        1.61      1.61      1.92      0.01         0.01
  YS02001625YS02001629        1.35      1.35      1.92      0.01         0.01
  YS02001629YS02163301        1.90      1.90      1.91      0.93         0.93
  YS02001633YS02163601        1.92      1.92      1.93      1.20         1.24
  YS02001641YS02001644        1.66      1.85      1.66      2.24         1.64
  YS02001644YS02001647        1.07      1.07      1.66      0.04         0.01
  YS02001647YS02001649        1.07      1.07      1.18      0.01         0.01
  YS02001649YS02001757        1.14      1.18      1.14      1.36         1.12
  YS02001652YS02001649        0.93      0.93      1.18      0.01         0.01
  YS02001655YS02001652        0.66      0.66      0.88      0.01         0.01
  YS02001658YS02001655        0.40      0.40      0.66      0.01         0.01
  YS02001661YS02001658        0.01      0.01      0.40      0.01         0.01
  YS02001745YS02001748        0.01      0.01      0.02      0.01         0.01
  YS02001748YS02001751        0.12      0.12      0.41      0.01         0.01
  YS02001751YS02001754        0.41      0.41      0.70      0.01         0.01
  YS02001754YS02001757        0.74      0.74      1.14      0.01         0.01
  YS02001757CaochengTiaoxuchi        0.01      1.14      0.01      1.35         0.01
  YS02001759YS02001757        1.01      1.01      1.14      0.01         0.03
  YS02001762YS02001759        0.97      0.97      1.01      0.01         0.11
  YS02001765YS02001762        0.92      0.92      0.97      0.01         0.01
  YS02001767YS02001765        0.89      0.89      0.92      0.01         0.14
  YS02001770YS02001767        0.89      0.91      0.89      1.47         0.87
  YS02001774YS02001770        0.86      0.86      0.99      0.01         0.01
  YS02001779YS02001774        0.74      0.74      0.99      0.01         0.01
  YS02001783YS02001784        1.35      1.38      1.35      1.57         1.35
  YS02001784YS02001785        1.10      1.35      1.10      1.96         1.10
  YS02001786YS02001788        0.01      1.10      0.01      1.90         0.01
  YS02001790YS02001791        0.01      0.01      0.01      1.31         0.01
  YS02001793JiankangQianchi        0.01      0.01      4.45      0.01         0.01
  YS02001882YS02001884        1.27      1.27      1.30      0.01         0.01
  YS02001884YS02001887        1.35      1.35      1.37      0.01         0.01
  YS02001887YS02001890        1.39      1.39      1.40      0.01         0.01
  YS02001890YS02001895        1.23      1.23      1.42      0.01         0.01
  YS02001895YS02001898        1.21      1.21      1.23      0.01         0.01
  YS02001898YS02001901        1.24      1.24      1.35      0.01         0.01
  YS02001901YS02001904        1.33      1.33      1.35      0.01         0.01
  YS02001904YS02001907        1.33      1.33      1.89      0.01         0.01
  YS02001907YS02006553        1.96      1.96      1.99      0.01         0.01
  YS02001910YS02001907        1.42      1.42      1.86      0.01         0.01
  YS02001915YS02001910        1.28      1.28      1.42      0.01         0.01
  YS02001918YS02001915        1.09      1.09      1.28      0.01         0.01
  YS02001920YS02001918        1.09      1.09      1.11      0.01         0.01
  YS02001923YS02001920        1.02      1.02      1.11      0.01         0.01
  YS02001926YS02001923        0.01      0.01      0.01      0.01         0.01
  YS02001929YS02001926        0.01      0.01      0.01      0.01         0.01
  YS02006553YS02006556        1.53      1.53      1.89      0.01         0.01
  YS02006556YS02006558        1.64      1.64      1.89      0.01         0.01
  YS02006558YS02006561        1.14      1.51      1.14      1.94         1.14
  YS02006561YS02001783        1.04      1.04      1.38      0.01         0.01
  YS02163301YS02001633        1.91      1.91      1.93      0.01         0.04
  YS02163601YS02164001        1.86      1.86      1.93      0.69         0.01
  YS02164001YS02001641        1.85      1.86      1.85      1.54         1.44
  YSB1154YSB6556              1.76      1.76      1.95      0.01         0.01
  YSB1171HS02004479           1.53      1.53      1.95      0.01         0.01
  YSB1174YSB1171              1.92      1.92      2.03      0.01         0.01
  YSB6556YSB1171              1.76      1.76      2.08      0.01         0.01
  
  
  ***************
  Pumping Summary
  ***************
  
  ---------------------------------------------------------------------------------------------------------
                                                  Min       Avg       Max     Total     Power    % Time Off
                        Percent   Number of      Flow      Flow      Flow    Volume     Usage    Pump Curve
  Pump                 Utilized   Start-Ups       LPS       LPS       LPS  10^6 ltr     Kw-hr    Low   High
  ---------------------------------------------------------------------------------------------------------
  CC-R1                   10.45          23      0.00   3274.50   3415.00     9.459    158.31    0.0  100.0
  CC-R2                    6.61          24      0.00   3202.30   3415.00     5.682     94.43    0.0  100.0
  CC-S1                   11.79          29      0.00    942.69   1000.00     3.107     29.99    0.0    0.0
  CC-S2                   11.01          28      0.00    961.46   1000.00     2.932     28.31    0.0    0.0
  JK-R1                    7.66          27      0.00   1777.60   5000.00     3.847     40.28    0.0    0.0
  JK-R2                    1.08          20      0.00   4543.48   5000.00     1.369     11.31    0.0    0.0
  JK-S                    14.95          36      0.00    559.63   1500.00     2.386     37.58    0.0    0.0
  XR-1                    97.91           2      0.00     95.00     95.00     2.679      9.60    0.0    0.0
  XR-2                    93.94           2      0.00     95.00     95.00     2.570      8.76    0.0    0.0
  XR-3                     0.00           1      0.00     95.00     95.00     0.000      0.00    0.0    0.0
  XR-4                     0.00           1      0.00     95.00     95.00     0.000      0.00    0.0    0.0
  

  Analysis begun on:  Tue Jul 18 18:49:49 2023
  Analysis ended on:  Tue Jul 18 18:49:56 2023
  Total elapsed time: 00:00:07