
  OWA STORM WATER MANAGEMENT MODEL - VERSION v5.2.3 (OWA 2023-03-28)
  ------------------------------------------------------------

  WARNING 04: minimum elevation drop used for Conduit WS02004404WS02004405
  WARNING 03: negative offset ignored for Link YS02001904YS02001907
  
  ****************
  Analysis Options
  ****************
  Flow Units ............... LPS
  Process Models:
    Rainfall/Runoff ........ YES
    RDII ................... NO
    Snowmelt ............... NO
    Groundwater ............ NO
    Flow Routing ........... YES
    Ponding Allowed ........ NO
    Water Quality .......... NO
  Infiltration Method ...... HORTON
  Flow Routing Method ...... DYNWAVE
  Surcharge Method ......... EXTRAN
  Starting Date ............ 08/28/2015 08:00:00
  Ending Date .............. 08/28/2015 16:00:00
  Antecedent Dry Days ...... 8.0
  Report Time Step ......... 00:01:00
  Wet Time Step ............ 00:01:00
  Dry Time Step ............ 00:01:00
  Routing Time Step ........ 30.00 sec
  Variable Time Step ....... YES
  Maximum Trials ........... 8
  Number of Threads ........ 1
  Head Tolerance ........... 0.001500 m
  
  
  **************************        Volume         Depth
  Runoff Quantity Continuity     hectare-m            mm
  **************************     ---------       -------
  Total Precipitation ......         3.148        51.961
  Evaporation Loss .........         0.000         0.000
  Infiltration Loss ........         0.234         3.859
  Surface Runoff ...........         2.854        47.107
  Final Storage ............         0.061         1.006
  Continuity Error (%) .....        -0.021
  
  
  **************************        Volume        Volume
  Flow Routing Continuity        hectare-m      10^6 ltr
  **************************     ---------     ---------
  Dry Weather Inflow .......         0.630         6.296
  Wet Weather Inflow .......         2.854        28.540
  Groundwater Inflow .......         0.000         0.000
  RDII Inflow ..............         0.000         0.000
  External Inflow ..........         0.105         1.045
  External Outflow .........         2.818        28.178
  Flooding Loss ............         1.046        10.459
  Evaporation Loss .........         0.000         0.000
  Exfiltration Loss ........         0.000         0.000
  Initial Stored Volume ....         0.303         3.031
  Final Stored Volume ......         0.177         1.771
  Continuity Error (%) .....        -3.843
  
  
  *************************
  Highest Continuity Errors
  *************************
  Node JK-storage (-27.86%)
  Node YS02001583 (-5.89%)
  Node YS02001884 (4.91%)
  Node CC-storage (-2.39%)
  Node HS02004842 (1.72%)
  
  
  ***************************
  Time-Step Critical Elements
  ***************************
  Link WS02006252WS02006251 (64.06%)
  Link WS02006280WS02006229 (14.61%)
  Link YS02001793JiankangQianchi (5.81%)
  Link WS02006238WS02006235 (4.07%)
  Link YS02001791YS02001793 (2.75%)
  
  
  ********************************
  Highest Flow Instability Indexes
  ********************************
  Link WS02006113WS02006111 (32)
  Link WS02006111WS02006112 (20)
  Link WS02006252WS02006251 (11)
  Link WS02006238WS02006235 (10)
  Link WS02004404WS02004405 (10)
  
  
  *********************************
  Most Frequent Nonconverging Nodes
  *********************************
  Node CC-1 (6.47%)
  Node CC-2 (6.47%)
  Node JK-1 (6.47%)
  Node JK-2 (6.47%)
  Node WSC (6.47%)
  
  
  *************************
  Routing Time Step Summary
  *************************
  Minimum Time Step           :     0.01 sec
  Average Time Step           :     1.45 sec
  Maximum Time Step           :    30.00 sec
  % of Time in Steady State   :     0.00
  Average Iterations per Step :     2.73
  % of Steps Not Converging   :     6.47
  Time Step Frequencies       :
     30.000 - 13.228 sec      :     0.01 %
     13.228 -  5.833 sec      :     1.23 %
      5.833 -  2.572 sec      :    12.76 %
      2.572 -  1.134 sec      :    21.97 %
      1.134 -  0.500 sec      :    64.03 %
  
  
  ***************************
  Subcatchment Runoff Summary
  ***************************
  
  ------------------------------------------------------------------------------------------------------------------------------
                            Total      Total      Total      Total     Imperv       Perv      Total       Total     Peak  Runoff
                           Precip      Runon       Evap      Infil     Runoff     Runoff     Runoff      Runoff   Runoff   Coeff
  Subcatchment                 mm         mm         mm         mm         mm         mm         mm    10^6 ltr      LPS
  ------------------------------------------------------------------------------------------------------------------------------
  sub0                      51.96       0.00       0.00       0.98      47.07       2.66      49.73        0.04    30.01   0.957
  sub1                      51.96       0.00       0.00       1.67      45.00       4.05      49.05        0.33   198.25   0.944
  sub10                     51.96       0.00       0.00       1.18      46.52       2.98      49.50        0.55   340.06   0.953
  sub11                     51.96       0.00       0.00       1.16      46.54       3.00      49.54        0.58   379.44   0.953
  sub12                     51.96       0.00       0.00       1.89      44.03       4.87      48.90        0.43   304.43   0.941
  sub14                     51.96       0.00       0.00       1.32      46.03       3.36      49.38        0.47   301.93   0.950
  sub15                     51.96       0.00       0.00       5.15      35.40      10.45      45.85        0.79   453.61   0.882
  sub16                     51.96       0.00       0.00       5.33      33.90      11.82      45.73        0.48   308.11   0.880
  sub17                     51.96       0.00       0.00       5.19      34.41      11.44      45.84        0.39   250.25   0.882
  sub2                      51.96       0.00       0.00       7.31      31.83      11.92      43.75        0.41   197.67   0.842
  sub22                     51.96       0.00       0.00       7.79      28.84      14.56      43.40        2.74  1498.97   0.835
  sub23                     51.96       0.00       0.00       6.36      31.87      12.87      44.74        2.13  1253.32   0.861
  sub3                      51.96       0.00       0.00       7.91      31.79      11.31      43.11        0.97   424.39   0.830
  sub4                      51.96       0.00       0.00       1.85      44.83       3.87      48.70        1.02   473.10   0.937
  sub5                      51.96       0.00       0.00       1.03      47.02       2.61      49.63        0.56   343.06   0.955
  sub60                     51.96       0.00       0.00       1.77      44.52       4.46      48.98        0.64   429.68   0.943
  sub61                     51.96       0.00       0.00       2.57      41.99       6.27      48.26        0.89   594.45   0.929
  sub62                     51.96       0.00       0.00       1.18      46.52       2.98      49.49        1.36   831.63   0.953
  sub63                     51.96       0.00       0.00       4.73      35.92      10.35      46.27        1.05   656.67   0.890
  sub64                     51.96       0.00       0.00       2.39      42.96       5.41      48.36        1.16   670.10   0.931
  sub65                     51.96       0.00       0.00       2.07      43.95       4.69      48.64        1.34   748.27   0.936
  sub66                     51.96       0.00       0.00       5.81      35.82       9.26      45.07        2.10   956.44   0.867
  sub67                     51.96       0.00       0.00       1.14      46.56       3.02      49.58        0.92   646.97   0.954
  sub68                     51.96       0.00       0.00       2.13      43.50       5.15      48.65        1.34   854.28   0.936
  sub69                     51.96       0.00       0.00       1.88      44.05       5.92      49.97        1.85   998.41   0.962
  sub7                      51.96       0.00       0.00       1.30      46.04       3.37      49.41        0.17   112.36   0.951
  sub70                     51.96       0.00       0.00       6.21      34.13      11.46      45.59        1.32   537.66   0.877
  sub71                     51.96       0.00       0.00       1.21      46.48       2.95      49.42        1.29   727.59   0.951
  sub72                     51.96       0.00       0.00       1.08      46.92       2.56      49.48        0.68   348.36   0.952
  sub8                      51.96       0.00       0.00       1.32      46.03       3.36      49.39        0.32   205.68   0.951
  sub9                      51.96       0.00       0.00       1.32      46.03       3.36      49.39        0.24   153.58   0.950
  
  
  ******************
  Node Depth Summary
  ******************
  
  ---------------------------------------------------------------------------------
                                 Average  Maximum  Maximum  Time of Max    Reported
                                   Depth    Depth      HGL   Occurrence   Max Depth
  Node                 Type       Meters   Meters   Meters  days hr:min      Meters
  ---------------------------------------------------------------------------------
  HS02004478           JUNCTION     0.16     1.86    11.09     0  01:58        1.86
  HS02004479           JUNCTION     0.23     1.85    11.05     0  01:58        1.85
  HS02004480           JUNCTION     0.19     1.81    11.05     0  01:58        1.81
  HS02004770           JUNCTION     0.21     1.42    11.25     0  01:57        1.42
  HS02004777           JUNCTION     0.23     1.48    11.28     0  01:57        1.48
  HS02004785           JUNCTION     0.13     1.49    11.39     0  01:57        1.49
  HS02004788           JUNCTION     0.10     1.42    11.32     0  01:56        1.42
  HS02004792           JUNCTION     0.14     1.60    11.12     0  01:57        1.60
  HS02004799           JUNCTION     0.24     1.76    10.97     0  01:57        1.76
  HS02004802           JUNCTION     0.26     1.92    11.05     0  01:58        1.92
  HS02004807           JUNCTION     0.23     1.92    11.09     0  01:59        1.84
  HS02004817           JUNCTION     0.52     2.44    11.29     0  01:59        2.23
  HS02004824           JUNCTION     0.11     2.01    11.41     0  01:59        1.74
  HS02004830           JUNCTION     0.11     2.03    11.50     0  01:59        1.68
  HS02004837           JUNCTION     0.09     2.01    11.59     0  01:57        1.57
  HS02004842           JUNCTION     0.38     2.22    11.49     0  01:59        1.87
  HS02004848           JUNCTION     0.07     2.03    11.63     0  01:59        1.56
  HS02004852           JUNCTION     0.08     2.07    11.58     0  01:59        1.61
  HS02004856           JUNCTION     0.14     2.07    11.50     0  01:59        1.66
  HS02004862           JUNCTION     0.09     2.00    11.38     0  01:59        1.65
  HS02004870           JUNCTION     0.08     2.10    11.39     0  01:59        1.63
  HS02004876           JUNCTION     0.12     2.26    11.29     0  01:59        1.73
  HS02004881           JUNCTION     0.07     2.15    11.18     0  01:59        1.52
  HS02004901           JUNCTION     0.21     1.42    11.24     0  01:56        1.42
  WS02001211           JUNCTION     0.62     0.81     5.65     0  02:05        0.81
  WS02001212           JUNCTION     0.36     0.57     5.63     0  02:06        0.57
  WS02001213           JUNCTION     0.58     0.86     5.63     0  02:05        0.86
  WS02003059           JUNCTION     0.64     0.93     5.62     0  02:05        0.93
  WS02003060           JUNCTION     0.37     0.68     5.61     0  02:05        0.68
  WS02003066           JUNCTION     0.23     0.45     6.01     0  02:02        0.45
  WS02003067           JUNCTION     0.55     0.89     6.21     0  02:01        0.89
  WS02003069           JUNCTION     0.42     0.77     5.36     0  02:05        0.77
  WS02003072           JUNCTION     0.48     0.81     5.18     0  02:05        0.81
  WS02003073           JUNCTION     0.29     0.51     4.58     0  02:06        0.51
  WS02004138           JUNCTION     0.13     0.14     7.39     0  00:31        0.14
  WS02004139           JUNCTION     0.56     0.74     5.65     0  02:05        0.74
  WS02004401           JUNCTION     0.74     1.88     7.88     0  01:58        1.88
  WS02004402           JUNCTION     0.76     1.77     7.73     0  02:02        1.76
  WS02004403           JUNCTION     0.77     1.69     7.62     0  02:02        1.69
  WS02004404           JUNCTION     0.84     1.71     7.56     0  02:02        1.71
  WS02004405           JUNCTION     0.84     1.66     7.51     0  02:02        1.66
  WS02004406           JUNCTION     0.83     1.66     7.49     0  01:46        1.54
  WS02004407           JUNCTION     0.25     0.90     7.21     0  02:02        0.90
  WS02004409           JUNCTION     0.52     1.55     7.32     0  01:58        1.55
  WS02004410           JUNCTION     0.53     1.28     7.00     0  02:02        1.27
  WS02004411           JUNCTION     0.54     1.19     6.87     0  02:01        1.19
  WS02004412           JUNCTION     0.54     1.10     6.74     0  02:01        1.10
  WS02004413           JUNCTION     0.68     1.14     6.61     0  02:02        1.14
  WS02006109           JUNCTION     0.89     2.64     9.26     0  01:57        2.64
  WS02006110           JUNCTION     0.85     2.57     9.16     0  01:46        2.40
  WS02006111           JUNCTION     0.35     2.07     8.78     0  01:46        1.75
  WS02006112           JUNCTION     0.94     2.68     8.56     0  00:00        2.67
  WS02006113           JUNCTION     0.44     2.17     9.06     0  01:46        1.80
  WS02006115           JUNCTION     0.64     1.96     8.10     0  01:58        1.96
  WS02006116           JUNCTION     0.72     1.96     8.00     0  01:46        1.92
  WS02006228           JUNCTION     0.92     3.03     9.68     0  01:57        3.03
  WS02006229           JUNCTION     0.92     3.25     9.94     0  01:58        3.25
  WS02006230           JUNCTION     0.87     2.65     9.39     0  01:54        2.65
  WS02006231           JUNCTION     0.61     2.21     9.33     0  02:20        2.21
  WS02006232           JUNCTION     0.72     2.18     9.22     0  01:54        2.18
  WS02006234           JUNCTION     0.61     1.96     9.12     0  01:52        1.96
  WS02006235           JUNCTION     0.63     1.99     9.15     0  01:55        1.93
  WS02006238           JUNCTION     0.66     2.00     9.14     0  01:55        1.94
  WS02006239           JUNCTION     0.61     1.87     9.08     0  01:58        1.87
  WS02006240           JUNCTION     0.56     1.82     9.12     0  01:58        1.82
  WS02006242           JUNCTION     0.61     1.55     8.82     0  01:41        1.55
  WS02006243           JUNCTION     0.50     1.39     8.81     0  03:05        1.38
  WS02006245           JUNCTION     0.49     1.32     8.80     0  02:20        1.32
  WS02006247           JUNCTION     0.50     1.25     8.75     0  02:20        1.25
  WS02006248           JUNCTION     0.45     1.10     8.69     0  01:44        1.10
  WS02006249           JUNCTION     0.48     1.09     8.69     0  01:44        1.09
  WS02006251           JUNCTION     0.52     2.21     9.88     0  01:59        2.09
  WS02006252           JUNCTION     0.37     1.50     9.74     0  01:59        1.50
  WS02006253           JUNCTION     0.57     3.52    11.16     0  01:59        2.81
  WS02006256           JUNCTION     0.92     2.35     9.28     0  00:11        2.35
  WS02006280           JUNCTION     0.21     1.83    10.10     0  01:58        1.83
  WS02006284           JUNCTION     0.48     2.08    10.48     0  01:58        2.08
  WS02006287           JUNCTION     0.22     1.89    10.84     0  01:58        1.89
  WSF200               JUNCTION     0.22     0.52     5.75     0  02:04        0.52
  YS02001580           JUNCTION     0.05     1.05     9.59     0  01:57        1.05
  YS02001583           JUNCTION     0.08     1.14     9.64     0  01:56        0.82
  YS02001586           JUNCTION     0.14     1.13     9.30     0  01:56        1.13
  YS02001590           JUNCTION     0.22     1.40     9.26     0  01:55        1.40
  YS02001593           JUNCTION     0.16     1.46     9.32     0  01:58        1.46
  YS02001596           JUNCTION     0.22     1.70     9.12     0  01:58        1.70
  YS02001600           JUNCTION     0.28     1.87     9.00     0  01:56        1.87
  YS02001601           JUNCTION     0.48     2.06     8.90     0  01:56        2.06
  YS02001602           JUNCTION     0.40     1.87     8.77     0  01:56        1.87
  YS02001605           JUNCTION     0.37     1.78     8.68     0  01:56        1.77
  YS02001607           JUNCTION     0.38     1.65     8.50     0  01:56        1.65
  YS02001610           JUNCTION     0.43     1.68     8.48     0  01:56        1.68
  YS02001613           JUNCTION     0.39     1.70     8.54     0  01:56        1.66
  YS02001616           JUNCTION     0.32     1.61     8.52     0  01:56        1.61
  YS02001619           JUNCTION     0.30     1.61     8.54     0  01:56        1.61
  YS02001622           JUNCTION     0.29     1.62     8.52     0  01:56        1.57
  YS02001625           JUNCTION     0.56     1.78     8.38     0  01:56        1.78
  YS02001629           JUNCTION     0.45     1.85     8.40     0  01:56        1.85
  YS02001633           JUNCTION     0.53     2.08     8.53     0  01:58        2.08
  YS02001641           JUNCTION     0.52     1.96     8.40     0  02:00        1.94
  YS02001644           JUNCTION     0.52     1.92     8.35     0  02:00        1.92
  YS02001647           JUNCTION     0.33     1.80     8.41     0  02:01        1.69
  YS02001649           JUNCTION     0.43     2.00     8.39     0  02:01        1.86
  YS02001652           JUNCTION     0.31     1.91     8.51     0  02:01        1.74
  YS02001655           JUNCTION     0.20     1.95     8.80     0  02:01        1.55
  YS02001658           JUNCTION     0.11     1.96     9.11     0  02:01        1.31
  YS02001661           JUNCTION     0.12     1.41     8.81     0  02:01        1.11
  YS02001664           JUNCTION     0.04     0.64     8.57     0  02:01        0.61
  YS02001745           JUNCTION     0.04     0.96     8.48     0  02:01        0.63
  YS02001748           JUNCTION     0.11     1.84     8.92     0  02:01        1.08
  YS02001751           JUNCTION     0.17     1.77     8.65     0  02:01        1.25
  YS02001754           JUNCTION     0.29     1.86     8.46     0  02:01        1.49
  YS02001757           JUNCTION     0.49     2.05     8.31     0  02:01        1.83
  YS02001759           JUNCTION     0.42     2.02     8.38     0  02:01        1.81
  YS02001762           JUNCTION     0.41     2.03     8.43     0  02:01        1.82
  YS02001765           JUNCTION     0.38     1.99     8.44     0  02:01        1.78
  YS02001767           JUNCTION     0.37     1.96     8.45     0  02:01        1.79
  YS02001770           JUNCTION     0.37     1.95     8.45     0  02:01        1.85
  YS02001774           JUNCTION     0.43     2.00     8.42     0  02:01        1.93
  YS02001779           JUNCTION     0.25     1.68     8.37     0  01:59        1.68
  YS02001783           JUNCTION     0.18     1.45     7.59     0  01:59        1.23
  YS02001784           JUNCTION     0.20     1.27     7.33     0  01:59        1.10
  YS02001786           JUNCTION     0.18     1.01     7.04     0  01:59        0.87
  YS02001788           JUNCTION     0.12     0.62     6.60     0  01:59        0.62
  YS02001790           JUNCTION     0.15     0.72     6.37     0  02:01        0.72
  YS02001791           JUNCTION     0.09     0.44     5.91     0  02:02        0.43
  YS02001793           JUNCTION     0.06     0.25     5.08     0  01:59        0.23
  YS02001882           JUNCTION     0.24     1.78     8.50     0  01:58        1.63
  YS02001884           JUNCTION     0.33     1.85     8.47     0  01:58        1.73
  YS02001887           JUNCTION     0.40     1.88     8.41     0  01:58        1.82
  YS02001890           JUNCTION     0.43     1.81     8.32     0  01:58        1.81
  YS02001895           JUNCTION     0.21     1.58     8.32     0  01:59        1.56
  YS02001898           JUNCTION     0.22     1.58     8.32     0  01:59        1.56
  YS02001901           JUNCTION     0.33     1.69     8.30     0  01:59        1.67
  YS02001904           JUNCTION     0.31     1.65     8.28     0  01:59        1.64
  YS02001907           JUNCTION     0.62     1.96     8.25     0  01:59        1.96
  YS02001910           JUNCTION     0.42     2.10     8.61     0  01:59        1.95
  YS02001915           JUNCTION     0.24     2.00     8.72     0  01:59        1.90
  YS02001918           JUNCTION     0.11     1.81     8.88     0  01:59        1.81
  YS02001920           JUNCTION     0.19     2.14     9.15     0  01:59        2.04
  YS02001923           JUNCTION     0.08     2.03     9.29     0  01:59        1.94
  YS02001926           JUNCTION     0.12     1.90     9.35     0  01:59        1.90
  YS02001929           JUNCTION     0.06     1.78     9.47     0  01:59        1.67
  YS02006553           JUNCTION     0.62     2.03     8.31     0  01:59        1.98
  YS02006556           JUNCTION     0.60     2.06     8.37     0  01:59        1.94
  YS02006558           JUNCTION     0.64     2.12     8.39     0  01:59        1.99
  YS02006561           JUNCTION     0.11     1.15     7.81     0  01:59        0.89
  YS02163301           JUNCTION     0.48     1.92     8.44     0  02:00        1.92
  YS02163601           JUNCTION     0.57     2.05     8.44     0  02:00        2.02
  YS02164001           JUNCTION     0.51     1.96     8.42     0  02:00        1.94
  YSB1154              JUNCTION     0.36     2.10    11.16     0  01:58        2.10
  YSB1171              JUNCTION     0.50     1.95    10.85     0  01:57        1.95
  YSB1174              JUNCTION     0.31     1.95    11.06     0  01:58        1.95
  YSB6556              JUNCTION     0.26     1.80    10.97     0  01:57        1.80
  CC-1                 OUTFALL      0.00     0.00     0.00     0  00:00        0.00
  CC-2                 OUTFALL      0.00     0.00     0.00     0  00:00        0.00
  JK-1                 OUTFALL      0.00     0.00     0.00     0  00:00        0.00
  JK-2                 OUTFALL      0.00     0.00     0.00     0  00:00        0.00
  WSC                  OUTFALL      0.29     0.51     1.18     0  02:07        0.51
  CC-storage           STORAGE      0.89     2.09     7.59     0  03:05        2.09
  JK-storage           STORAGE      0.11     3.00     3.80     0  00:05        3.00
  XR-storage           STORAGE      7.90     9.26     7.26     0  08:00        9.26
  
  
  *******************
  Node Inflow Summary
  *******************
  
  -------------------------------------------------------------------------------------------------
                                  Maximum  Maximum                  Lateral       Total        Flow
                                  Lateral    Total  Time of Max      Inflow      Inflow     Balance
                                   Inflow   Inflow   Occurrence      Volume      Volume       Error
  Node                 Type           LPS      LPS  days hr:min    10^6 ltr    10^6 ltr     Percent
  -------------------------------------------------------------------------------------------------
  HS02004478           JUNCTION      0.00  2283.93     0  02:02           0        7.67      -0.014
  HS02004479           JUNCTION      0.00   510.87     0  01:59           0        0.74       0.083
  HS02004480           JUNCTION      0.00  2152.64     0  01:57           0        5.82       0.035
  HS02004770           JUNCTION   1253.32  1253.32     0  02:02        2.13        2.37       0.115
  HS02004777           JUNCTION      0.03   782.44     0  01:56    0.000864        1.75       0.297
  HS02004785           JUNCTION      0.15   787.45     0  01:56     0.00432        1.74       0.014
  HS02004788           JUNCTION    455.28   893.24     0  01:57       0.837        2.58      -0.008
  HS02004792           JUNCTION   1499.25  2260.92     0  02:02        2.75        5.33       0.000
  HS02004799           JUNCTION    301.93  1767.19     0  01:57        0.47        5.15       0.050
  HS02004802           JUNCTION      0.00  1030.15     0  02:02           0        1.89       0.207
  HS02004807           JUNCTION    379.44  1029.00     0  02:02       0.576        1.94       0.213
  HS02004817           JUNCTION      0.60   661.97     0  02:03      0.0173        1.43       1.152
  HS02004824           JUNCTION    473.15   687.04     0  01:57        1.02        1.62       0.044
  HS02004830           JUNCTION      0.15   686.03     0  01:57     0.00432       0.822       0.165
  HS02004837           JUNCTION    346.41   915.22     0  01:57       0.729        1.15       0.068
  HS02004842           JUNCTION      0.00   877.52     0  01:58           0       0.756       1.745
  HS02004848           JUNCTION    424.39  1126.22     0  01:58        0.97        1.56      -0.004
  HS02004852           JUNCTION      0.00  1123.09     0  01:59           0        1.41       0.011
  HS02004856           JUNCTION    153.58  1224.61     0  01:59       0.238        1.65       0.042
  HS02004862           JUNCTION    197.87  1316.56     0  01:59       0.414        2.06      -0.025
  HS02004870           JUNCTION    205.68  1420.01     0  01:59       0.316        2.37      -0.004
  HS02004876           JUNCTION    198.25  1401.25     0  01:59       0.326         2.7       0.017
  HS02004881           JUNCTION    112.36  1501.06     0  01:59       0.167        2.87      -0.013
  HS02004901           JUNCTION    308.11   533.00     0  02:03       0.479       0.705       0.227
  WS02001211           JUNCTION      7.35   203.40     0  02:41       0.212        5.44       0.612
  WS02001212           JUNCTION      0.00   209.07     0  02:40           0        5.41       0.291
  WS02001213           JUNCTION      0.00   212.69     0  02:40           0        5.39       0.332
  WS02003059           JUNCTION      0.00   217.06     0  02:39           0        5.38       0.595
  WS02003060           JUNCTION     16.53  1488.12     0  02:04       0.476        14.6       0.101
  WS02003066           JUNCTION      0.00  1286.48     0  02:02           0        8.81       0.016
  WS02003067           JUNCTION      0.00  1286.66     0  02:02           0        8.82       0.049
  WS02003069           JUNCTION      0.32  1488.27     0  02:05     0.00922        14.6       0.105
  WS02003072           JUNCTION      0.00  1488.16     0  02:05           0        14.6       0.142
  WS02003073           JUNCTION      1.82  1490.11     0  02:06      0.0524        14.6       0.147
  WS02004138           JUNCTION      0.00   190.00     0  00:29           0        5.25       0.053
  WS02004139           JUNCTION      0.32   190.32     0  00:31     0.00924        5.26       0.508
  WS02004401           JUNCTION      0.00  1286.02     0  02:02           0        8.92       0.126
  WS02004402           JUNCTION      0.00  1286.93     0  02:02           0        8.92       0.123
  WS02004403           JUNCTION      0.00  1286.65     0  02:02           0        8.91       0.120
  WS02004404           JUNCTION      0.16  1287.82     0  02:02     0.00467         8.9       0.099
  WS02004405           JUNCTION      0.04  1288.78     0  02:02      0.0011        8.89       0.142
  WS02004406           JUNCTION      0.00  1288.16     0  02:02           0        8.88       0.242
  WS02004407           JUNCTION      0.00  1288.18     0  02:02           0        8.85       0.016
  WS02004409           JUNCTION      0.00  1286.41     0  02:02           0        8.85       0.032
  WS02004410           JUNCTION      0.00  1286.74     0  02:02           0        8.85       0.053
  WS02004411           JUNCTION      0.00  1286.87     0  02:02           0        8.84       0.065
  WS02004412           JUNCTION      0.00  1286.52     0  02:02           0        8.84       0.090
  WS02004413           JUNCTION      0.00  1286.31     0  02:02           0        8.83       0.150
  WS02006109           JUNCTION      1.23  1308.01     0  00:00      0.0354        8.69       0.130
  WS02006110           JUNCTION      0.00  1119.93     0  02:16           0        8.48      -0.419
  WS02006111           JUNCTION      0.00  1176.04     0  00:00           0        8.51      -0.445
  WS02006112           JUNCTION    250.25  2307.30     0  00:00       0.393        8.95      -0.007
  WS02006113           JUNCTION      0.00  1120.27     0  02:16           0        8.48      -0.537
  WS02006115           JUNCTION      0.00  2152.75     0  00:00           0        8.93       0.047
  WS02006116           JUNCTION      0.00  1286.65     0  02:02           0        8.92       0.028
  WS02006228           JUNCTION      0.00  1278.22     0  02:03           0        8.63       0.071
  WS02006229           JUNCTION      0.00  2286.19     0  02:02           0        10.5       0.096
  WS02006230           JUNCTION     10.28  1017.05     0  02:02       0.296        4.78       0.118
  WS02006231           JUNCTION      0.00   453.87     0  01:58           0        3.75      -0.166
  WS02006232           JUNCTION      0.00   453.48     0  02:11           0        3.74       0.108
  WS02006234           JUNCTION      0.00   453.27     0  02:02           0        3.73      -0.050
  WS02006235           JUNCTION      0.00   422.05     0  01:55           0        3.68       0.056
  WS02006238           JUNCTION      0.00   415.60     0  02:07           0        3.29      -0.120
  WS02006239           JUNCTION      0.00   415.00     0  02:07           0        3.29      -0.161
  WS02006240           JUNCTION      0.00   414.84     0  02:08           0        3.29      -0.014
  WS02006242           JUNCTION      0.00   414.96     0  02:05           0        3.29      -0.002
  WS02006243           JUNCTION      0.00   304.06     0  03:05           0        2.99      -0.112
  WS02006245           JUNCTION      0.00   303.93     0  03:05           0        2.99       0.313
  WS02006247           JUNCTION      0.00   304.02     0  03:04           0        2.99       0.051
  WS02006248           JUNCTION      0.00   340.19     0  02:20           0         3.2      -0.059
  WS02006249           JUNCTION      0.00  1341.95     0  01:59           0        5.36       0.148
  WS02006251           JUNCTION      0.08  1533.31     0  01:59     0.00222        5.42      -0.011
  WS02006252           JUNCTION      0.00   392.74     0  01:59           0        2.63      -0.342
  WS02006253           JUNCTION     30.01  1531.01     0  01:59      0.0403        2.93      -0.004
  WS02006256           JUNCTION      0.00   300.00     0  01:35           0        0.72       0.095
  WS02006280           JUNCTION      0.00  2283.90     0  02:02           0        7.66       0.017
  WS02006284           JUNCTION      0.10  2284.31     0  02:02     0.00275        7.66      -0.008
  WS02006287           JUNCTION      0.00  2284.40     0  02:02           0        7.66       0.010
  WSF200               JUNCTION      0.00  1286.70     0  02:02           0        8.81       0.007
  YS02001580           JUNCTION      0.00   122.53     0  01:56           0     0.00443       0.582
  YS02001583           JUNCTION      0.00   194.96     0  01:56           0      0.0154      -5.563
  YS02001586           JUNCTION    537.66   537.66     0  02:04        1.32        1.33       0.109
  YS02001590           JUNCTION      0.00   318.21     0  02:10           0        1.16      -0.023
  YS02001593           JUNCTION      0.00   318.03     0  02:05           0        1.16       0.031
  YS02001596           JUNCTION      0.00   318.01     0  02:05           0        1.16      -0.023
  YS02001600           JUNCTION      0.00   318.00     0  02:19           0        1.16      -0.018
  YS02001601           JUNCTION    998.41  1315.92     0  02:03        1.85        3.01       0.019
  YS02001602           JUNCTION      0.00   528.87     0  01:56           0        2.08       0.017
  YS02001605           JUNCTION      0.00   528.44     0  01:56           0           2       0.020
  YS02001607           JUNCTION      0.00   527.85     0  01:56           0           2       0.091
  YS02001610           JUNCTION      0.00   533.53     0  01:56           0        2.03       0.108
  YS02001613           JUNCTION      0.00   537.57     0  01:56           0        1.73       0.094
  YS02001616           JUNCTION      0.00   542.43     0  01:56           0        1.73       0.021
  YS02001619           JUNCTION    956.44   956.44     0  02:04         2.1        3.79      -0.001
  YS02001622           JUNCTION      0.00   939.62     0  01:56           0        3.75      -0.004
  YS02001625           JUNCTION      0.00  1061.31     0  02:04           0        3.79       0.360
  YS02001629           JUNCTION      0.00   947.92     0  01:56           0         3.3      -0.069
  YS02001633           JUNCTION    748.47  1404.08     0  01:58        1.34        4.59       0.071
  YS02001641           JUNCTION      0.00  1399.99     0  01:58           0        4.55       0.058
  YS02001644           JUNCTION    670.14  1840.83     0  01:58        1.16        5.71       0.056
  YS02001647           JUNCTION      0.00  1840.77     0  01:58           0        5.64       0.002
  YS02001649           JUNCTION      0.00  2107.72     0  01:58           0         6.7       0.003
  YS02001652           JUNCTION      0.00   834.47     0  02:02           0        1.06      -0.126
  YS02001655           JUNCTION      0.15   833.53     0  02:02     0.00443        1.06       0.054
  YS02001658           JUNCTION      0.00   831.95     0  02:02           0        1.05      -0.030
  YS02001661           JUNCTION      0.00   773.96     0  02:02           0        1.05      -0.040
  YS02001664           JUNCTION    656.67   656.67     0  02:02        1.05        1.05      -0.008
  YS02001745           JUNCTION    429.69   551.19     0  02:01       0.644       0.645       0.292
  YS02001748           JUNCTION      0.04   579.77     0  02:01      0.0013       0.646      -0.512
  YS02001751           JUNCTION      0.01   573.78     0  02:01    0.000317       0.654       0.107
  YS02001754           JUNCTION      0.26   575.93     0  02:01     0.00749       0.666      -0.213
  YS02001757           JUNCTION      0.00  3442.50     0  02:01           0        9.62       0.015
  YS02001759           JUNCTION    594.49  1385.93     0  02:01       0.887        2.26      -0.007
  YS02001762           JUNCTION      0.00   811.93     0  02:03           0        1.37      -0.007
  YS02001765           JUNCTION      0.00   811.27     0  02:03           0        1.37       0.001
  YS02001767           JUNCTION      0.54   810.83     0  02:03      0.0154        1.37      -0.020
  YS02001770           JUNCTION    831.78   831.78     0  02:02        1.36        1.42      -0.020
  YS02001774           JUNCTION      0.00   432.84     0  01:59           0      0.0965       1.072
  YS02001779           JUNCTION      0.01   439.53     0  01:59    0.000144      0.0416      -2.046
  YS02001783           JUNCTION      0.00  1160.29     0  02:01           0        3.57       0.007
  YS02001784           JUNCTION      1.06  1161.71     0  02:01      0.0305         3.6       0.013
  YS02001786           JUNCTION      0.06  1161.30     0  02:01     0.00162         3.6       0.018
  YS02001788           JUNCTION      0.07  1161.85     0  02:01     0.00204         3.6       0.008
  YS02001790           JUNCTION      0.15  1175.33     0  02:00     0.00446        3.61       0.030
  YS02001791           JUNCTION      0.00  1287.35     0  02:02           0        3.61      -0.030
  YS02001793           JUNCTION      0.00  1232.21     0  02:04           0        3.61       0.001
  YS02001882           JUNCTION      0.00    58.27     0  01:57           0      0.0123       5.643
  YS02001884           JUNCTION      0.00    69.65     0  01:56           0      0.0477       5.166
  YS02001887           JUNCTION    647.42   648.83     0  02:01       0.935       0.968       0.454
  YS02001890           JUNCTION      0.00   648.43     0  02:01           0       0.928       0.543
  YS02001895           JUNCTION      0.00   515.75     0  02:04           0       0.892       0.172
  YS02001898           JUNCTION      0.00   515.82     0  02:04           0       0.891       0.003
  YS02001901           JUNCTION      0.00   516.03     0  02:04           0       0.894       0.368
  YS02001904           JUNCTION      0.00   515.94     0  02:04           0       0.898       0.292
  YS02001907           JUNCTION      0.00  1615.66     0  02:03           0        2.94       0.598
  YS02001910           JUNCTION      0.00  1100.60     0  02:04           0        2.05       0.341
  YS02001915           JUNCTION    727.61  1100.33     0  02:03        1.29         2.1       0.080
  YS02001918           JUNCTION      0.00   474.27     0  01:59           0       0.839      -0.004
  YS02001920           JUNCTION      2.87   473.44     0  01:59      0.0827        0.82       0.115
  YS02001923           JUNCTION      0.04   472.63     0  01:59     0.00109        0.72      -0.143
  YS02001926           JUNCTION      0.05   722.22     0  01:59      0.0015       0.699      -0.099
  YS02001929           JUNCTION    348.36   588.77     0  01:59        0.68       0.685       0.009
  YS02006553           JUNCTION      0.00   793.87     0  02:15           0        2.25       0.523
  YS02006556           JUNCTION      0.00   793.46     0  02:16           0        2.26       0.350
  YS02006558           JUNCTION    855.16  1169.58     0  01:59        1.36         3.6       0.100
  YS02006561           JUNCTION      0.00  1168.60     0  01:59           0        3.57      -0.002
  YS02163301           JUNCTION      0.00   931.92     0  01:58           0         3.3       0.040
  YS02163601           JUNCTION      0.11  1403.00     0  01:58     0.00317        4.55       0.102
  YS02164001           JUNCTION      0.00  1401.75     0  01:58           0        4.55       0.046
  YSB1154              JUNCTION    343.06   343.06     0  02:02       0.562       0.563       0.253
  YSB1171              JUNCTION      0.00   697.66     0  02:03           0        1.01       0.613
  YSB1174              JUNCTION    304.43   304.43     0  02:01       0.427       0.428       0.290
  YSB6556              JUNCTION      0.00   343.34     0  02:02           0       0.564       0.196
  CC-1                 OUTFALL       0.00   683.00     0  01:45           0        3.57       0.000
  CC-2                 OUTFALL       0.00   683.00     0  00:20           0        5.95       0.000
  JK-1                 OUTFALL       0.00  1000.00     0  00:05           0        2.86       0.000
  JK-2                 OUTFALL       0.00  1000.00     0  01:35           0        1.18       0.000
  WSC                  OUTFALL       0.00  1490.39     0  02:07           0        14.6       0.000
  CC-storage           STORAGE       0.00  3445.08     0  02:01           0        11.8      -2.334
  JK-storage           STORAGE       0.00  1261.28     0  01:59           0        3.76     -21.790
  XR-storage           STORAGE     200.00   200.00     0  00:00        5.76        6.36       0.001
  
  
  **********************
  Node Surcharge Summary
  **********************
  
  Surcharging occurs when water rises above the top of the highest conduit.
  ---------------------------------------------------------------------
                                               Max. Height   Min. Depth
                                   Hours       Above Crown    Below Rim
  Node                 Type      Surcharged         Meters       Meters
  ---------------------------------------------------------------------
  HS02004478           JUNCTION        0.37          0.940        0.000
  HS02004479           JUNCTION        0.50          1.050        0.000
  HS02004480           JUNCTION        0.54          1.100        0.000
  HS02004770           JUNCTION        0.45          0.720        0.000
  HS02004777           JUNCTION        0.46          0.780        0.000
  HS02004785           JUNCTION        0.41          0.790        0.000
  HS02004788           JUNCTION        0.40          0.720        0.000
  HS02004792           JUNCTION        0.51          0.900        0.000
  HS02004799           JUNCTION        0.63          1.060        0.000
  HS02004802           JUNCTION        0.55          1.210        0.000
  HS02004807           JUNCTION        0.53          1.220        0.000
  HS02004817           JUNCTION        1.10          1.740        0.000
  HS02004824           JUNCTION        0.39          1.310        0.000
  HS02004830           JUNCTION        0.36          1.330        0.000
  HS02004837           JUNCTION        0.33          1.309        0.031
  HS02004842           JUNCTION        0.46          1.520        0.000
  HS02004848           JUNCTION        0.27          1.326        0.044
  HS02004852           JUNCTION        0.31          1.369        0.051
  HS02004856           JUNCTION        0.26          1.300        0.000
  HS02004862           JUNCTION        0.32          1.300        0.000
  HS02004870           JUNCTION        0.33          1.400        0.000
  HS02004876           JUNCTION        0.40          1.560        0.000
  HS02004881           JUNCTION        0.38          1.450        0.000
  HS02004901           JUNCTION        0.46          0.720        0.000
  WS02004401           JUNCTION        1.52          0.883        0.777
  WS02004402           JUNCTION        1.54          0.770        0.970
  WS02004403           JUNCTION        1.55          0.694        1.336
  WS02004404           JUNCTION        1.63          0.709        2.071
  WS02004405           JUNCTION        1.62          0.659        2.141
  WS02004406           JUNCTION        1.60          0.662        1.788
  WS02004409           JUNCTION        0.86          0.549        1.811
  WS02004410           JUNCTION        0.83          0.282        2.258
  WS02004411           JUNCTION        0.75          0.195        2.335
  WS02004412           JUNCTION        0.65          0.097        2.213
  WS02004413           JUNCTION        1.20          0.140        2.060
  WS02006109           JUNCTION        2.01          1.820        0.000
  WS02006110           JUNCTION        1.75          1.665        0.185
  WS02006111           JUNCTION        1.13          1.262        0.608
  WS02006112           JUNCTION        1.83          1.680        0.000
  WS02006113           JUNCTION        1.16          1.368        0.562
  WS02006115           JUNCTION        1.45          0.954        1.296
  WS02006116           JUNCTION        1.46          0.901        1.389
  WS02006228           JUNCTION        2.00          2.200        0.000
  WS02006229           JUNCTION        0.77          1.070        0.000
  WS02006230           JUNCTION        1.64          1.570        0.000
  WS02006231           JUNCTION        1.69          1.496        0.034
  WS02006232           JUNCTION        1.89          1.480        0.000
  WS02006234           JUNCTION        1.75          1.240        0.000
  WS02006235           JUNCTION        1.80          1.275        0.015
  WS02006238           JUNCTION        1.82          1.280        0.150
  WS02006239           JUNCTION        1.76          1.134        0.156
  WS02006240           JUNCTION        1.73          1.113        0.277
  WS02006242           JUNCTION        1.77          0.820        0.000
  WS02006243           JUNCTION        1.63          0.683        0.087
  WS02006245           JUNCTION        1.60          0.606        0.244
  WS02006247           JUNCTION        1.60          0.543        0.217
  WS02006248           JUNCTION        1.55          0.380        0.000
  WS02006249           JUNCTION        1.56          0.390        0.000
  WS02006251           JUNCTION        1.40          1.180        0.000
  WS02006252           JUNCTION        1.48          1.100        0.000
  WS02006253           JUNCTION        1.42          2.480        0.000
  WS02006256           JUNCTION        5.51          2.050        0.000
  WS02006280           JUNCTION        0.64          0.780        0.000
  WS02006284           JUNCTION        0.57          0.800        0.000
  WS02006287           JUNCTION        0.48          0.890        0.000
  YS02001580           JUNCTION        0.47          0.450        0.000
  YS02001583           JUNCTION        0.48          0.500        0.000
  YS02001586           JUNCTION        0.61          0.510        0.000
  YS02001590           JUNCTION        0.69          0.750        0.000
  YS02001593           JUNCTION        0.69          0.840        0.000
  YS02001596           JUNCTION        0.82          0.966        0.104
  YS02001600           JUNCTION        1.15          1.190        0.000
  YS02001601           JUNCTION        1.56          1.440        0.000
  YS02001602           JUNCTION        1.48          1.270        0.000
  YS02001605           JUNCTION        1.46          1.180        0.000
  YS02001607           JUNCTION        0.69          0.650        0.030
  YS02001610           JUNCTION        0.74          0.680        0.000
  YS02001613           JUNCTION        0.68          0.700        0.000
  YS02001616           JUNCTION        0.63          0.610        0.000
  YS02001619           JUNCTION        0.61          0.610        0.000
  YS02001622           JUNCTION        0.61          0.620        0.000
  YS02001625           JUNCTION        1.24          0.780        0.000
  YS02001629           JUNCTION        0.54          0.470        0.000
  YS02001633           JUNCTION        1.32          1.060        0.000
  YS02001641           JUNCTION        1.32          0.958        0.142
  YS02001644           JUNCTION        1.31          0.920        0.000
  YS02001647           JUNCTION        0.59          0.802        0.098
  YS02001649           JUNCTION        1.29          0.996        0.054
  YS02001652           JUNCTION        0.32          0.881        0.249
  YS02001655           JUNCTION        0.17          0.952        0.248
  YS02001658           JUNCTION        0.08          0.963        0.337
  YS02001661           JUNCTION        0.01          0.336        1.054
  YS02001748           JUNCTION        0.01          0.759        0.431
  YS02001751           JUNCTION        0.10          0.772        0.428
  YS02001754           JUNCTION        0.17          0.805        0.345
  YS02001757           JUNCTION        1.44          1.051        0.159
  YS02001759           JUNCTION        1.29          1.020        0.190
  YS02001762           JUNCTION        1.26          1.026        0.124
  YS02001765           JUNCTION        0.97          0.993        0.107
  YS02001767           JUNCTION        0.81          0.961        0.069
  YS02001770           JUNCTION        0.67          0.920        0.000
  YS02001774           JUNCTION        1.20          1.001        0.049
  YS02001779           JUNCTION        0.19          0.680        0.000
  YS02001783           JUNCTION        0.45          0.651        0.949
  YS02001784           JUNCTION        0.42          0.465        1.025
  YS02001786           JUNCTION        0.33          0.212        1.218
  YS02001882           JUNCTION        0.40          0.782        0.048
  YS02001884           JUNCTION        0.41          0.794        0.076
  YS02001887           JUNCTION        0.44          0.826        0.124
  YS02001890           JUNCTION        0.45          0.760        0.000
  YS02001895           JUNCTION        0.39          0.576        0.174
  YS02001898           JUNCTION        0.38          0.553        0.187
  YS02001901           JUNCTION        0.43          0.690        0.180
  YS02001904           JUNCTION        0.42          0.648        0.202
  YS02001907           JUNCTION        0.65          0.950        0.000
  YS02001910           JUNCTION        0.48          1.100        0.000
  YS02001915           JUNCTION        0.39          1.000        0.000
  YS02001918           JUNCTION        0.32          0.810        0.000
  YS02001920           JUNCTION        0.33          1.140        0.000
  YS02001923           JUNCTION        0.01          0.820        0.000
  YS02001926           JUNCTION        0.02          0.900        0.000
  YS02001929           JUNCTION        0.01          0.780        0.000
  YS02006553           JUNCTION        0.66          1.027        0.163
  YS02006556           JUNCTION        0.56          1.022        0.328
  YS02006558           JUNCTION        0.55          1.019        0.381
  YS02006561           JUNCTION        0.28          0.350        0.800
  YS02163301           JUNCTION        1.29          0.919        0.111
  YS02163601           JUNCTION        1.37          1.045        0.035
  YS02164001           JUNCTION        1.31          0.963        0.137
  YSB1154              JUNCTION        0.74          1.400        0.000
  YSB1171              JUNCTION        0.75          1.100        0.000
  YSB1174              JUNCTION        0.66          1.250        0.000
  YSB6556              JUNCTION        0.60          1.100        0.000
  
  
  *********************
  Node Flooding Summary
  *********************
  
  Flooding refers to all water that overflows a node, whether it ponds or not.
  --------------------------------------------------------------------------
                                                             Total   Maximum
                                 Maximum   Time of Max       Flood    Ponded
                        Hours       Rate    Occurrence      Volume     Depth
  Node                 Flooded       LPS   days hr:min    10^6 ltr    Meters
  --------------------------------------------------------------------------
  HS02004478              0.01     13.77      0  01:58       0.000     0.000
  HS02004479              0.01      9.33      0  01:58       0.000     0.000
  HS02004480              0.01     24.49      0  01:58       0.000     0.000
  HS02004770              0.27    740.44      0  02:02       0.398     0.000
  HS02004777              0.01     46.26      0  01:57       0.000     0.000
  HS02004785              0.01     81.81      0  01:57       0.000     0.000
  HS02004788              0.01    360.19      0  01:56       0.003     0.000
  HS02004792              0.28   1118.52      0  02:02       0.651     0.000
  HS02004799              0.12    169.11      0  02:01       0.038     0.000
  HS02004802              0.01      1.63      0  01:58       0.000     0.000
  HS02004807              0.01     18.18      0  01:59       0.000     0.000
  HS02004817              0.01      9.86      0  01:59       0.000     0.000
  HS02004824              0.01     14.02      0  01:59       0.000     0.000
  HS02004830              0.01     13.66      0  01:59       0.000     0.000
  HS02004842              0.01     69.04      0  01:59       0.001     0.000
  HS02004856              0.01    364.80      0  01:59       0.004     0.000
  HS02004862              0.01    272.00      0  01:59       0.001     0.000
  HS02004870              0.01    215.33      0  01:59       0.001     0.000
  HS02004876              0.01     19.12      0  01:59       0.000     0.000
  HS02004881              0.01    292.70      0  01:59       0.000     0.000
  HS02004901              0.34    533.00      0  02:03       0.467     0.000
  WS02006109              0.32    244.51      0  02:02       0.170     0.000
  WS02006112              0.01   1153.65      0  00:00       0.035     0.000
  WS02006228              0.01      6.19      0  01:57       0.000     0.000
  WS02006229              0.01      5.00      0  01:58       0.000     0.000
  WS02006230              0.58    564.06      0  02:02       0.739     0.000
  WS02006232              0.15      1.31      0  01:55       0.000     0.000
  WS02006234              0.62    128.42      0  02:28       0.159     0.000
  WS02006242              0.72    173.59      0  01:41       0.301     0.000
  WS02006248              0.98    339.92      0  01:54       1.026     0.000
  WS02006249              1.37   1280.71      0  01:59       2.966     0.000
  WS02006251              0.01     65.75      0  01:59       0.000     0.000
  WS02006252              0.22    392.04      0  01:59       0.156     0.000
  WS02006253              0.01    121.21      0  01:59       0.000     0.000
  WS02006256              0.40    284.09      0  02:05       0.234     0.000
  WS02006280              0.01      5.73      0  01:58       0.000     0.000
  WS02006284              0.01      4.45      0  01:58       0.000     0.000
  WS02006287              0.01     10.03      0  01:58       0.000     0.000
  YS02001580              0.01    109.39      0  01:57       0.000     0.000
  YS02001583              0.01    117.94      0  01:56       0.000     0.000
  YS02001586              0.37    220.09      0  02:04       0.158     0.000
  YS02001590              0.01     39.48      0  01:55       0.000     0.000
  YS02001593              0.01      0.18      0  01:58       0.000     0.000
  YS02001600              0.01      1.41      0  01:56       0.000     0.000
  YS02001601              0.54    917.99      0  02:03       0.931     0.000
  YS02001602              0.40     61.96      0  02:11       0.079     0.000
  YS02001605              0.01      5.68      0  01:56       0.000     0.000
  YS02001610              0.34    446.02      0  02:05       0.337     0.000
  YS02001613              0.01     16.59      0  01:56       0.000     0.000
  YS02001616              0.01     24.62      0  01:56       0.000     0.000
  YS02001619              0.01      6.36      0  01:56       0.000     0.000
  YS02001622              0.01     64.58      0  01:56       0.000     0.000
  YS02001625              0.29   1061.01      0  02:04       0.516     0.000
  YS02001629              0.07    212.05      0  01:56       0.022     0.000
  YS02001633              0.01      0.04      0  01:58       0.000     0.000
  YS02001644              0.07    491.36      0  02:02       0.059     0.000
  YS02001770              0.01     11.32      0  02:01       0.000     0.000
  YS02001779              0.05    375.11      0  01:59       0.014     0.000
  YS02001890              0.10    140.58      0  02:01       0.030     0.000
  YS02001907              0.26   1270.89      0  02:03       0.683     0.000
  YS02001910              0.01     13.21      0  01:59       0.000     0.000
  YS02001915              0.01     20.07      0  01:59       0.000     0.000
  YS02001918              0.01    240.23      0  02:00       0.003     0.000
  YS02001920              0.01     81.36      0  01:59       0.000     0.000
  YS02001923              0.01    248.44      0  01:59       0.001     0.000
  YS02001926              0.01    471.75      0  01:59       0.003     0.000
  YS02001929              0.01    133.61      0  01:59       0.000     0.000
  YSB1154                 0.01      1.00      0  01:58       0.000     0.000
  YSB1171                 0.20    697.57      0  02:03       0.284     0.000
  YSB1174                 0.01      1.86      0  01:58       0.000     0.000
  YSB6556                 0.01     16.59      0  01:57       0.000     0.000
  
  
  **********************
  Storage Volume Summary
  **********************
  
  ------------------------------------------------------------------------------------------------
                         Average    Avg   Evap  Exfil     Maximum    Max    Time of Max    Maximum
                          Volume   Pcnt   Pcnt   Pcnt      Volume   Pcnt     Occurrence    Outflow
  Storage Unit           1000 m   Full   Loss   Loss     1000 m   Full    days hr:min        LPS
  ------------------------------------------------------------------------------------------------
  CC-storage               2.467   38.5    0.0    0.0       5.835   91.0       0  03:05    1566.00
  JK-storage               0.005    1.8    0.0    0.0       0.151   51.7       0  00:05    2300.00
  XR-storage               0.948   65.9    0.0    0.0       1.111   77.1       0  08:00     190.00
  
  
  ***********************
  Outfall Loading Summary
  ***********************
  
  -----------------------------------------------------------
                         Flow       Avg       Max       Total
                         Freq      Flow      Flow      Volume
  Outfall Node           Pcnt       LPS       LPS    10^6 ltr
  -----------------------------------------------------------
  CC-1                  37.71    450.56    683.00       3.567
  CC-2                  49.10    471.13    683.00       5.954
  JK-1                  71.35    158.06   1000.00       2.860
  JK-2                  29.62    147.48   1000.00       1.181
  WSC                   99.99    583.82   1490.39      14.617
  -----------------------------------------------------------
  System                57.56   1811.06   4082.98      28.178
  
  
  ********************
  Link Flow Summary
  ********************
  
  -----------------------------------------------------------------------------
                                 Maximum  Time of Max   Maximum    Max/    Max/
                                  |Flow|   Occurrence   |Veloc|    Full    Full
  Link                 Type          LPS  days hr:min     m/sec    Flow   Depth
  -----------------------------------------------------------------------------
  1                    CONDUIT   1490.39     0  02:07      3.69    0.52    0.51
  HS02004478WS02006287 CONDUIT   2284.40     0  02:02      2.59    0.64    1.00
  HS02004479HS02004480 CONDUIT    510.52     0  01:59      0.73    0.49    1.00
  HS02004480HS02004478 CONDUIT   2146.75     0  01:57      3.07    9.04    1.00
  HS02004770HS02004777 CONDUIT    782.41     0  01:56      1.12    1.43    1.00
  HS02004777HS02004785 CONDUIT    787.30     0  01:56      1.17    0.97    1.00
  HS02004785HS02004788 CONDUIT    664.47     0  01:57      1.35    5.01    1.00
  HS02004788HS02004792 CONDUIT    829.25     0  02:17      1.43    0.55    1.00
  HS02004792HS02004799 CONDUIT   1586.78     0  01:57      2.27    0.97    1.00
  HS02004799HS02004480 CONDUIT   1765.97     0  01:57      2.52    2.23    1.00
  HS02004802HS02004478 CONDUIT   1030.42     0  02:02      1.47    0.91    1.00
  HS02004807HS02004802 CONDUIT   1030.15     0  02:02      1.47    1.97    1.00
  HS02004817HS02004807 CONDUIT    662.12     0  02:03      0.95    0.39    1.00
  HS02004817HS02004824 CONDUIT    661.37     0  02:03      0.94    0.30    1.00
  HS02004824HS02004830 CONDUIT    685.88     0  01:57      0.98    0.90    1.00
  HS02004830HS02004837 CONDUIT    712.31     0  01:57      1.11    0.71    1.00
  HS02004837HS02004842 CONDUIT    877.52     0  01:58      1.25    0.52    1.00
  HS02004842HS02004848 CONDUIT    877.64     0  01:58      1.42    0.51    1.00
  HS02004848HS02004852 CONDUIT   1123.09     0  01:59      1.65    1.27    1.00
  HS02004852HS02004856 CONDUIT   1104.88     0  01:59      1.58    1.26    1.00
  HS02004856HS02004862 CONDUIT   1173.38     0  01:59      1.72    1.17    1.00
  HS02004862HS02004870 CONDUIT   1259.19     0  01:59      1.92    1.36    1.00
  HS02004870HS02004876 CONDUIT   1237.79     0  01:59      1.84    0.82    1.00
  HS02004876HS02004881 CONDUIT   1404.52     0  01:59      2.40   14.94    1.00
  HS02004881HS02006253 CONDUIT   1504.28     0  01:59      2.64    0.29    1.00
  HS02004901HS02004770 CONDUIT    265.73     0  02:13      0.38    1.00    1.00
  WS02001211WS02001212 CONDUIT    209.07     0  02:40      0.54    0.16    0.69
  WS02001212WS02001213 CONDUIT    212.69     0  02:40      1.03    0.33    0.56
  WS02001213WS02003059 CONDUIT    217.06     0  02:39      0.47    0.36    0.89
  WS02003059WS02003060 CONDUIT    222.06     0  02:39      0.66    0.14    0.81
  WS02003060WS02003069 CONDUIT   1487.95     0  02:05      2.08    0.58    0.61
  WS02003066WSF200     CONDUIT   1286.70     0  02:02      3.25    0.22    0.38
  WS02003067WS02003066 CONDUIT   1286.48     0  02:02      1.99    0.41    0.56
  WS02003069WS02003072 CONDUIT   1488.16     0  02:05      1.89    0.72    0.66
  WS02003072WS02003073 CONDUIT   1488.29     0  02:06      2.04    3.21    0.61
  WS02004138WS02004139 CONDUIT    190.00     0  00:31      2.17    0.04    0.41
  WS02004139WS02001211 CONDUIT    196.05     0  02:41      0.55    0.25    0.60
  WS02004401WS02004402 CONDUIT   1286.93     0  02:02      2.07    1.54    1.00
  WS02004402WS02004403 CONDUIT   1286.65     0  02:02      1.84    1.85    1.00
  WS02004403WS02004404 CONDUIT   1287.66     0  02:02      1.68    0.93    1.00
  WS02004404WS02004405 CONDUIT   1288.75     0  02:02      1.86   12.63    1.00
  WS02004405WS02004406 CONDUIT   1288.16     0  02:02      1.80    2.54    1.00
  WS02004406WS02004407 CONDUIT   1288.18     0  02:02      1.72    0.58    0.95
  WS02004407WS02004409 CONDUIT   1286.41     0  02:02      1.82    0.46    0.95
  WS02004409WS02004410 CONDUIT   1286.74     0  02:02      1.64    1.66    1.00
  WS02004410WS02004411 CONDUIT   1286.87     0  02:02      1.64    1.76    1.00
  WS02004411WS02004412 CONDUIT   1286.52     0  02:02      1.64    1.83    1.00
  WS02004412WS02004413 CONDUIT   1286.31     0  02:02      1.64    0.86    1.00
  WS02004413WS02003067 CONDUIT   1286.66     0  02:02      2.00    0.55    0.76
  WS02006109WS02006110 CONDUIT   1306.78     0  00:00      3.15    2.51    1.00
  WS02006110WS02006113 CONDUIT   1120.27     0  02:16      2.23    1.02    1.00
  WS02006111WS02006112 CONDUIT   2307.30     0  00:00      9.18    1.10    1.00
  WS02006112WS02006115 CONDUIT   2152.75     0  00:00      2.85    1.27    1.00
  WS02006113WS02006111 CONDUIT   1176.04     0  00:00      2.71    1.41    1.00
  WS02006115WS02006116 CONDUIT   1286.65     0  02:02      1.81    1.65    1.00
  WS02006116WS02004401 CONDUIT   1286.02     0  02:02      2.21    1.77    1.00
  WS02006228WS02006109 CONDUIT   1277.99     0  02:02      2.54    5.58    1.00
  WS02006229WS02006228 CONDUIT   1278.22     0  02:03      2.54    4.23    1.00
  WS02006230WS02006229 CONDUIT   1006.77     0  02:02      2.62   22.41    1.00
  WS02006231WS02006230 CONDUIT    453.87     0  01:58      1.29    6.88    1.00
  WS02006232WS02006231 CONDUIT    453.48     0  02:11      1.18    0.95    1.00
  WS02006234WS02006232 CONDUIT    453.27     0  02:02      1.18    0.92    1.00
  WS02006235WS02006234 CONDUIT    422.05     0  01:55      1.10    4.45    1.00
  WS02006238WS02006235 CONDUIT    415.60     0  02:07      1.23    0.93    1.00
  WS02006239WS02006238 CONDUIT    415.00     0  02:07      1.08    1.33    1.00
  WS02006240WS02006239 CONDUIT    414.84     0  02:08      1.09    1.31    1.00
  WS02006242WS02006240 CONDUIT    414.96     0  02:05      1.08    1.65    1.00
  WS02006243WS02006242 CONDUIT    303.89     0  03:05      1.14    0.65    1.00
  WS02006245WS02006243 CONDUIT    304.06     0  03:05      1.22    0.90    1.00
  WS02006247WS02006245 CONDUIT    303.93     0  03:05      1.17    2.41    1.00
  WS02006248WS02006247 CONDUIT    304.02     0  03:04      1.17    0.66    1.00
  WS02006249WS02006248 CONDUIT    304.17     0  03:04      1.16    1.67    1.00
  WS02006251WS02006249 CONDUIT   1341.95     0  01:59      3.49    3.87    1.00
  WS02006252WS02006251 CONDUIT   1298.45     0  00:05     20.66    4.77    1.00
  WS02006253WS02006251 CONDUIT   1533.24     0  01:59      3.98    4.60    1.00
  WS02006256WS02006235 CONDUIT    211.07     0  01:43      2.99    2.23    1.00
  WS02006280WS02006229 CONDUIT   2286.19     0  02:02      4.15    0.49    1.00
  WS02006284WS02006280 CONDUIT   2283.90     0  02:02      3.02    0.96    1.00
  WS02006287WS02006284 CONDUIT   2284.21     0  02:02      2.91    1.06    1.00
  WSF200WS02003060     CONDUIT   1287.15     0  02:02      2.32    0.29    0.50
  YS02001580YS02001583 CONDUIT    122.53     0  01:56      0.73    0.47    1.00
  YS02001583YS02001586 CONDUIT    175.66     0  01:56      0.77    0.27    1.00
  YS02001586YS02001590 CONDUIT    318.21     0  02:10      1.26    0.56    1.00
  YS02001590YS02001593 CONDUIT    318.03     0  02:05      1.12    2.00    1.00
  YS02001593YS02001596 CONDUIT    318.01     0  02:05      1.60    0.50    1.00
  YS02001596YS02001600 CONDUIT    318.00     0  02:19      1.12    0.62    1.00
  YS02001600YS02001601 CONDUIT    318.03     0  02:10      1.12    0.55    1.00
  YS02001601YS02001602 CONDUIT    528.87     0  01:56      1.87    1.91    1.00
  YS02001602YS02001605 CONDUIT    528.44     0  01:56      1.87   11.18    1.00
  YS02001605YS02001607 CONDUIT    527.85     0  01:56      1.87    2.89    1.00
  YS02001607YS02001610 CONDUIT    533.53     0  01:56      0.68    0.51    1.00
  YS02001610YS02001613 CONDUIT    537.57     0  01:56      0.68    0.62    1.00
  YS02001613YS02001616 CONDUIT    542.43     0  01:56      0.70    0.46    1.00
  YS02001616YS02001619 CONDUIT    504.28     0  01:56      0.67    0.88    1.00
  YS02001619YS02001622 CONDUIT    939.62     0  01:56      1.20    1.38    1.00
  YS02001622YS02001625 CONDUIT    946.74     0  01:56      1.21    0.51    1.00
  YS02001625YS02001629 CONDUIT    947.92     0  01:56      1.21    0.45    1.00
  YS02001629YS02163301 CONDUIT    931.92     0  01:58      1.19    1.15    1.00
  YS02001633YS02163601 CONDUIT   1402.89     0  01:58      1.79    1.47    1.00
  YS02001641YS02001644 CONDUIT   1400.28     0  01:58      1.78    4.53    1.00
  YS02001644YS02001647 CONDUIT   1840.77     0  01:58      2.35    1.08    1.00
  YS02001647YS02001649 CONDUIT   1859.91     0  01:58      2.37    0.98    1.00
  YS02001649YS02001757 CONDUIT   2107.95     0  01:58      2.69    1.28    1.00
  YS02001652YS02001649 CONDUIT    835.73     0  02:02      1.06    0.41    1.00
  YS02001655YS02001652 CONDUIT    834.47     0  02:02      1.31    0.41    1.00
  YS02001658YS02001655 CONDUIT    833.38     0  02:02      1.92    0.35    1.00
  YS02001661YS02001658 CONDUIT    831.95     0  02:02      2.39    0.33    1.00
  YS02001664YS02001661 CONDUIT    773.96     0  02:02      2.42    0.24    0.82
  YS02001745YS02001748 CONDUIT    579.72     0  02:01      2.30    0.22    0.98
  YS02001748YS02001751 CONDUIT    573.77     0  02:01      1.76    0.29    1.00
  YS02001751YS02001754 CONDUIT    575.67     0  02:01      1.39    0.28    1.00
  YS02001754YS02001757 CONDUIT    577.50     0  02:01      0.74    0.23    1.00
  YS02001757CaochengTiaoxuchi CONDUIT   3445.08     0  02:01      6.43    1.49    1.00
  YS02001759YS02001757 CONDUIT   1386.06     0  02:01      1.76    0.98    1.00
  YS02001762YS02001759 CONDUIT    812.96     0  02:03      1.04    0.94    1.00
  YS02001765YS02001762 CONDUIT    811.93     0  02:03      1.03    0.76    1.00
  YS02001767YS02001765 CONDUIT    811.27     0  02:03      1.03    1.02    1.00
  YS02001770YS02001767 CONDUIT    810.29     0  02:03      1.03    3.21    1.00
  YS02001774YS02001770 CONDUIT    432.84     0  01:59      0.55    0.28    1.00
  YS02001779YS02001774 CONDUIT    439.52     0  01:59      0.57    0.22    1.00
  YS02001783YS02001784 CONDUIT   1160.65     0  02:01      2.31    1.60    1.00
  YS02001784YS02001785 CONDUIT   1161.24     0  02:01      2.31    2.70    1.00
  YS02001786YS02001788 CONDUIT   1161.78     0  02:01      2.48    2.24    0.89
  YS02001788YS02001790 CONDUIT   1175.18     0  02:00      2.72    0.87    0.84
  YS02001790YS02001791 CONDUIT   1287.35     0  02:02      3.41    1.40    0.70
  YS02001791YS02001793 CONDUIT   1232.21     0  02:04      6.76    0.53    0.42
  YS02001793JiankangQianchi CONDUIT   1261.28     0  01:59     20.30    0.10    0.60
  YS02001882YS02001884 CONDUIT     58.27     0  01:57      0.12    0.07    1.00
  YS02001884YS02001887 CONDUIT     69.65     0  01:56      0.09    0.09    1.00
  YS02001887YS02001890 CONDUIT    648.43     0  02:01      0.83    1.11    1.00
  YS02001890YS02001895 CONDUIT    515.75     0  02:04      0.66    0.24    1.00
  YS02001895YS02001898 CONDUIT    515.82     0  02:04      0.66    0.90    1.00
  YS02001898YS02001901 CONDUIT    516.03     0  02:04      0.66    0.33    1.00
  YS02001901YS02001904 CONDUIT    515.94     0  02:04      0.66    0.80    1.00
  YS02001904YS02001907 CONDUIT    515.74     0  02:05      0.66    0.18    1.00
  YS02001907YS02006553 CONDUIT    793.87     0  02:15      0.88    0.93    1.00
  YS02001910YS02001907 CONDUIT   1100.49     0  02:04      1.40    0.62    1.00
  YS02001915YS02001910 CONDUIT   1100.60     0  02:04      1.40    0.55    1.00
  YS02001918YS02001915 CONDUIT    474.27     0  01:59      0.60    0.26    1.00
  YS02001920YS02001918 CONDUIT    470.57     0  01:59      0.64    0.46    1.00
  YS02001923YS02001920 CONDUIT    472.60     0  01:59      0.69    0.21    1.00
  YS02001926YS02001923 CONDUIT    430.52     0  01:59      0.97    0.61    1.00
  YS02001929YS02001926 CONDUIT    403.55     0  02:00      1.16    0.19    1.00
  YS02006553YS02006556 CONDUIT    793.46     0  02:16      1.01    0.68    1.00
  YS02006556YS02006558 CONDUIT    795.18     0  02:16      1.01    0.63    1.00
  YS02006558YS02006561 CONDUIT   1168.60     0  01:59      4.13    2.58    1.00
  YS02006561YS02001783 CONDUIT   1160.29     0  02:01      2.31    0.60    1.00
  YS02163301YS02001633 CONDUIT    931.73     0  01:58      1.19    0.88    1.00
  YS02163601YS02164001 CONDUIT   1401.75     0  01:58      1.78    1.24    1.00
  YS02164001YS02001641 CONDUIT   1399.99     0  01:58      1.78    1.91    1.00
  YSB1154YSB6556       CONDUIT    343.34     0  02:02      0.89    0.62    1.00
  YSB1171HS02004479    CONDUIT    510.87     0  01:59      1.02    0.34    1.00
  YSB1174YSB1171       CONDUIT    304.78     0  02:01      0.79    0.47    1.00
  YSB6556YSB1171       CONDUIT    343.69     0  02:02      0.89    0.35    1.00
  CC-R1                PUMP       683.00     0  01:45              1.00
  CC-R2                PUMP       683.00     0  00:20              1.00
  CC-S1                PUMP       200.00     0  00:05              1.00
  CC-S2                PUMP       200.00     0  02:05              1.00
  JK-R1                PUMP      1000.00     0  00:05              1.00
  JK-R2                PUMP      1000.00     0  01:35              1.00
  JK-S                 PUMP       300.00     0  01:35              1.00
  XR-1                 PUMP        95.00     0  00:10              1.00
  XR-2                 PUMP        95.00     0  00:29              1.00
  XR-3                 PUMP         0.00     0  00:00              0.00
  XR-4                 PUMP         0.00     0  00:00              0.00
  
  
  ***************************
  Flow Classification Summary
  ***************************
  
  -------------------------------------------------------------------------------------
                      Adjusted    ---------- Fraction of Time in Flow Class ---------- 
                       /Actual         Up    Down  Sub   Sup   Up    Down  Norm  Inlet 
  Conduit               Length    Dry  Dry   Dry   Crit  Crit  Crit  Crit  Ltd   Ctrl  
  -------------------------------------------------------------------------------------
  1                       1.00   0.00  0.00  0.00  0.00  1.00  0.00  0.00  0.48  0.00
  HS02004478WS02006287    1.00   0.16  0.00  0.00  0.66  0.17  0.00  0.00  0.60  0.00
  HS02004479HS02004480    1.00   0.04  0.00  0.00  0.96  0.00  0.00  0.00  0.11  0.00
  HS02004480HS02004478    1.00   0.13  0.00  0.00  0.61  0.00  0.00  0.26  0.00  0.00
  HS02004770HS02004777    1.00   0.00  0.13  0.00  0.87  0.00  0.00  0.00  0.03  0.00
  HS02004777HS02004785    1.00   0.00  0.00  0.00  1.00  0.00  0.00  0.00  0.12  0.00
  HS02004785HS02004788    1.00   0.00  0.00  0.00  1.00  0.00  0.00  0.00  0.00  0.00
  HS02004788HS02004792    1.00   0.00  0.00  0.00  0.99  0.01  0.00  0.00  0.92  0.00
  HS02004792HS02004799    1.00   0.00  0.00  0.00  0.99  0.01  0.00  0.00  0.88  0.00
  HS02004799HS02004480    1.00   0.00  0.03  0.00  0.84  0.00  0.12  0.00  0.00  0.00
  HS02004802HS02004478    1.00   0.13  0.01  0.00  0.86  0.00  0.00  0.00  0.03  0.00
  HS02004807HS02004802    1.00   0.13  0.00  0.00  0.85  0.00  0.00  0.02  0.00  0.00
  HS02004817HS02004807    1.00   0.00  0.13  0.00  0.87  0.00  0.00  0.00  0.01  0.00
  HS02004817HS02004824    1.00   0.00  0.00  0.00  1.00  0.00  0.00  0.00  0.83  0.00
  HS02004824HS02004830    1.00   0.00  0.00  0.00  1.00  0.00  0.00  0.00  0.01  0.00
  HS02004830HS02004837    1.00   0.00  0.00  0.00  1.00  0.00  0.00  0.00  0.90  0.00
  HS02004837HS02004842    1.00   0.00  0.00  0.00  0.99  0.01  0.00  0.00  0.11  0.00
  HS02004842HS02004848    1.00   0.00  0.13  0.00  0.87  0.00  0.00  0.00  0.57  0.00
  HS02004848HS02004852    1.00   0.13  0.00  0.00  0.87  0.00  0.00  0.00  0.71  0.00
  HS02004852HS02004856    1.00   0.13  0.01  0.00  0.86  0.00  0.00  0.00  0.68  0.00
  HS02004856HS02004862    1.00   0.00  0.17  0.00  0.83  0.00  0.00  0.00  0.75  0.00
  HS02004862HS02004870    1.00   0.00  0.00  0.00  1.00  0.00  0.00  0.00  0.04  0.00
  HS02004870HS02004876    1.00   0.00  0.00  0.00  1.00  0.00  0.00  0.00  0.87  0.00
  HS02004876HS02004881    1.00   0.01  0.00  0.00  0.85  0.15  0.00  0.00  0.00  0.00
  HS02004881HS02006253    1.00   0.02  0.03  0.00  0.43  0.01  0.00  0.52  0.37  0.00
  HS02004901HS02004770    1.00   0.13  0.00  0.00  0.87  0.00  0.00  0.00  0.00  0.00
  WS02001211WS02001212    1.00   0.00  0.02  0.00  0.98  0.00  0.00  0.00  0.00  0.00
  WS02001212WS02001213    1.00   0.02  0.00  0.00  0.36  0.00  0.61  0.00  0.00  0.00
  WS02001213WS02003059    1.00   0.00  0.01  0.00  0.99  0.00  0.00  0.00  0.00  0.00
  WS02003059WS02003060    1.00   0.00  0.00  0.00  1.00  0.00  0.00  0.00  0.03  0.00
  WS02003060WS02003069    1.00   0.00  0.00  0.00  0.97  0.03  0.00  0.00  0.42  0.00
  WS02003066WSF200        1.00   0.06  0.00  0.00  0.00  0.94  0.00  0.00  0.70  0.00
  WS02003067WS02003066    1.00   0.05  0.01  0.00  0.94  0.00  0.00  0.00  0.00  0.00
  WS02003069WS02003072    1.00   0.00  0.00  0.00  0.99  0.01  0.00  0.00  0.54  0.00
  WS02003072WS02003073    1.00   0.00  0.00  0.00  0.00  0.00  0.00  1.00  0.00  0.00
  WS02004138WS02004139    1.00   0.02  0.00  0.00  0.97  0.01  0.00  0.00  0.98  0.00
  WS02004139WS02001211    1.00   0.00  0.01  0.00  0.99  0.00  0.00  0.00  0.00  0.00
  WS02004401WS02004402    1.00   0.00  0.00  0.00  1.00  0.00  0.00  0.00  0.00  0.00
  WS02004402WS02004403    1.00   0.00  0.00  0.00  1.00  0.00  0.00  0.00  0.00  0.00
  WS02004403WS02004404    1.00   0.00  0.00  0.00  1.00  0.00  0.00  0.00  0.00  0.00
  WS02004404WS02004405    1.00   0.00  0.00  0.00  1.00  0.00  0.00  0.00  0.00  0.00
  WS02004405WS02004406    1.00   0.00  0.00  0.00  1.00  0.00  0.00  0.00  0.00  0.00
  WS02004406WS02004407    1.00   0.00  0.01  0.00  0.99  0.00  0.00  0.00  0.01  0.00
  WS02004407WS02004409    1.00   0.01  0.00  0.00  0.98  0.01  0.00  0.00  0.88  0.00
  WS02004409WS02004410    1.00   0.01  0.00  0.00  0.99  0.00  0.00  0.00  0.00  0.00
  WS02004410WS02004411    1.00   0.01  0.00  0.00  0.99  0.00  0.00  0.00  0.01  0.00
  WS02004411WS02004412    1.00   0.01  0.00  0.00  0.99  0.00  0.00  0.00  0.00  0.00
  WS02004412WS02004413    1.00   0.01  0.00  0.00  0.99  0.00  0.00  0.00  0.02  0.00
  WS02004413WS02003067    1.00   0.01  0.04  0.00  0.00  0.00  0.95  0.00  0.00  0.00
  WS02006109WS02006110    1.00   0.00  0.00  0.00  1.00  0.00  0.00  0.00  0.00  0.00
  WS02006110WS02006113    1.00   0.00  0.00  0.00  1.00  0.00  0.00  0.00  0.00  0.00
  WS02006111WS02006112    1.00   0.00  0.00  0.00  1.00  0.00  0.00  0.00  0.80  0.00
  WS02006112WS02006115    1.00   0.00  0.00  0.00  1.00  0.00  0.00  0.00  0.00  0.00
  WS02006113WS02006111    1.00   0.00  0.00  0.00  0.19  0.81  0.00  0.00  0.10  0.00
  WS02006115WS02006116    1.00   0.00  0.00  0.00  1.00  0.00  0.00  0.00  0.00  0.00
  WS02006116WS02004401    1.00   0.00  0.00  0.00  1.00  0.00  0.00  0.00  0.00  0.00
  WS02006228WS02006109    1.00   0.00  0.00  0.00  1.00  0.00  0.00  0.00  0.00  0.00
  WS02006229WS02006228    1.00   0.00  0.00  0.00  1.00  0.00  0.00  0.00  0.00  0.00
  WS02006230WS02006229    1.00   0.00  0.00  0.00  1.00  0.00  0.00  0.00  0.00  0.00
  WS02006231WS02006230    1.00   0.00  0.00  0.00  0.30  0.00  0.70  0.00  0.00  0.00
  WS02006232WS02006231    1.00   0.00  0.00  0.00  0.99  0.00  0.00  0.00  0.01  0.00
  WS02006234WS02006232    1.00   0.00  0.01  0.00  0.99  0.00  0.00  0.00  0.19  0.00
  WS02006235WS02006234    1.00   0.02  0.00  0.00  0.70  0.00  0.28  0.00  0.00  0.00
  WS02006238WS02006235    1.00   0.02  0.00  0.00  0.98  0.00  0.00  0.00  0.00  0.00
  WS02006239WS02006238    1.00   0.02  0.00  0.00  0.98  0.00  0.00  0.00  0.25  0.00
  WS02006240WS02006239    1.00   0.02  0.00  0.00  0.61  0.00  0.00  0.38  0.01  0.00
  WS02006242WS02006240    1.00   0.01  0.00  0.00  0.98  0.00  0.01  0.00  0.00  0.00
  WS02006243WS02006242    1.00   0.01  0.00  0.00  0.98  0.00  0.00  0.01  0.47  0.00
  WS02006245WS02006243    1.00   0.01  0.00  0.00  0.91  0.00  0.00  0.08  0.01  0.00
  WS02006247WS02006245    1.00   0.01  0.00  0.00  0.98  0.00  0.00  0.01  0.00  0.00
  WS02006248WS02006247    1.00   0.01  0.00  0.00  0.98  0.00  0.00  0.01  0.45  0.00
  WS02006249WS02006248    1.00   0.00  0.01  0.00  0.51  0.00  0.48  0.00  0.00  0.00
  WS02006251WS02006249    1.00   0.00  0.00  0.00  1.00  0.00  0.00  0.00  0.47  0.00
  WS02006252WS02006251    1.00   0.01  0.22  0.00  0.18  0.00  0.59  0.00  0.00  0.00
  WS02006253WS02006251    1.00   0.01  0.00  0.00  0.97  0.00  0.02  0.00  0.00  0.00
  WS02006256WS02006235    1.00   0.02  0.00  0.00  0.98  0.00  0.00  0.00  0.00  0.00
  WS02006280WS02006229    1.00   0.14  0.00  0.00  0.13  0.05  0.00  0.68  0.02  0.00
  WS02006284WS02006280    1.00   0.14  0.00  0.00  0.09  0.01  0.00  0.76  0.00  0.00
  WS02006287WS02006284    1.00   0.10  0.06  0.00  0.57  0.27  0.00  0.00  0.66  0.00
  WSF200WS02003060        1.00   0.00  0.06  0.00  0.68  0.26  0.00  0.00  0.58  0.00
  YS02001580YS02001583    1.00   0.24  0.58  0.00  0.18  0.00  0.00  0.00  0.68  0.00
  YS02001583YS02001586    1.00   0.43  0.34  0.00  0.23  0.00  0.00  0.00  0.68  0.00
  YS02001586YS02001590    1.00   0.13  0.00  0.00  0.41  0.04  0.00  0.42  0.36  0.00
  YS02001590YS02001593    1.00   0.13  0.01  0.00  0.10  0.00  0.76  0.00  0.00  0.00
  YS02001593YS02001596    1.00   0.14  0.00  0.00  0.15  0.02  0.00  0.70  0.06  0.00
  YS02001596YS02001600    1.00   0.14  0.00  0.00  0.22  0.01  0.00  0.63  0.05  0.00
  YS02001600YS02001601    1.00   0.13  0.01  0.00  0.86  0.00  0.00  0.00  0.59  0.00
  YS02001601YS02001602    1.00   0.13  0.01  0.00  0.86  0.00  0.00  0.00  0.00  0.00
  YS02001602YS02001605    1.00   0.14  0.00  0.00  0.86  0.00  0.00  0.00  0.00  0.00
  YS02001605YS02001607    1.00   0.14  0.00  0.00  0.86  0.00  0.00  0.00  0.00  0.00
  YS02001607YS02001610    1.00   0.13  0.01  0.00  0.86  0.00  0.00  0.00  0.02  0.00
  YS02001610YS02001613    1.00   0.13  0.00  0.00  0.87  0.00  0.00  0.00  0.01  0.00
  YS02001613YS02001616    1.00   0.13  0.00  0.00  0.87  0.00  0.00  0.00  0.01  0.00
  YS02001616YS02001619    1.00   0.13  0.00  0.00  0.87  0.00  0.00  0.00  0.00  0.00
  YS02001619YS02001622    1.00   0.13  0.00  0.00  0.87  0.00  0.00  0.00  0.28  0.00
  YS02001622YS02001625    1.00   0.13  0.00  0.00  0.87  0.00  0.00  0.00  0.05  0.00
  YS02001625YS02001629    1.00   0.13  0.05  0.00  0.24  0.00  0.58  0.00  0.00  0.00
  YS02001629YS02163301    1.00   0.16  0.01  0.00  0.83  0.00  0.00  0.00  0.00  0.00
  YS02001633YS02163601    1.00   0.00  0.01  0.00  0.99  0.00  0.00  0.00  0.15  0.00
  YS02001641YS02001644    1.00   0.00  0.01  0.00  0.99  0.00  0.00  0.00  0.00  0.00
  YS02001644YS02001647    1.00   0.00  0.18  0.00  0.82  0.00  0.00  0.00  0.00  0.00
  YS02001647YS02001649    1.00   0.00  0.18  0.00  0.73  0.10  0.00  0.00  0.50  0.00
  YS02001649YS02001757    1.00   0.00  0.00  0.00  0.90  0.10  0.00  0.00  0.54  0.00
  YS02001652YS02001649    1.00   0.00  0.00  0.00  0.96  0.04  0.00  0.00  0.63  0.00
  YS02001655YS02001652    1.00   0.00  0.00  0.00  0.31  0.01  0.00  0.68  0.06  0.00
  YS02001658YS02001655    1.00   0.00  0.14  0.00  0.75  0.11  0.00  0.00  0.59  0.00
  YS02001661YS02001658    1.00   0.14  0.00  0.00  0.60  0.26  0.00  0.00  0.70  0.00
  YS02001664YS02001661    1.00   0.13  0.00  0.00  0.75  0.13  0.00  0.00  0.86  0.00
  YS02001745YS02001748    1.00   0.00  0.00  0.00  0.19  0.00  0.00  0.81  0.16  0.00
  YS02001748YS02001751    1.00   0.00  0.00  0.00  0.89  0.11  0.00  0.00  0.67  0.00
  YS02001751YS02001754    1.00   0.00  0.00  0.00  0.30  0.01  0.00  0.70  0.06  0.00
  YS02001754YS02001757    1.00   0.00  0.00  0.00  1.00  0.00  0.00  0.00  0.69  0.00
  YS02001757CaochengTiaoxuchi    1.00   0.00  0.00  0.00  0.53  0.47  0.00  0.00  0.24  0.00
  YS02001759YS02001757    1.00   0.00  0.00  0.00  1.00  0.00  0.00  0.00  0.60  0.00
  YS02001762YS02001759    1.00   0.00  0.00  0.00  1.00  0.00  0.00  0.00  0.04  0.00
  YS02001765YS02001762    1.00   0.00  0.00  0.00  1.00  0.00  0.00  0.00  0.60  0.00
  YS02001767YS02001765    1.00   0.00  0.00  0.00  1.00  0.00  0.00  0.00  0.00  0.00
  YS02001770YS02001767    1.00   0.00  0.00  0.00  1.00  0.00  0.00  0.00  0.00  0.00
  YS02001774YS02001770    1.00   0.00  0.13  0.00  0.69  0.00  0.17  0.00  0.03  0.00
  YS02001779YS02001774    1.00   0.00  0.00  0.00  1.00  0.00  0.00  0.00  0.66  0.00
  YS02001783YS02001784    1.00   0.00  0.18  0.00  0.82  0.00  0.00  0.00  0.56  0.00
  YS02001784YS02001785    1.00   0.00  0.00  0.00  1.00  0.00  0.00  0.00  0.17  0.00
  YS02001786YS02001788    1.00   0.00  0.00  0.00  0.79  0.21  0.00  0.00  0.00  0.00
  YS02001788YS02001790    1.00   0.00  0.00  0.00  0.21  0.79  0.00  0.00  0.81  0.00
  YS02001790YS02001791    1.00   0.00  0.00  0.00  0.01  0.99  0.00  0.00  0.16  0.00
  YS02001791YS02001793    1.00   0.00  0.00  0.00  0.00  1.00  0.00  0.00  0.01  0.00
  YS02001793JiankangQianchi    1.00   0.00  0.00  0.00  0.30  0.70  0.00  0.00  0.40  0.00
  YS02001882YS02001884    1.00   0.15  0.01  0.00  0.84  0.00  0.00  0.00  0.00  0.00
  YS02001884YS02001887    1.00   0.06  0.05  0.00  0.89  0.00  0.00  0.00  0.00  0.00
  YS02001887YS02001890    1.00   0.00  0.00  0.00  0.97  0.00  0.03  0.00  0.00  0.00
  YS02001890YS02001895    1.00   0.00  0.16  0.00  0.83  0.00  0.00  0.00  0.00  0.00
  YS02001895YS02001898    1.00   0.17  0.00  0.00  0.81  0.00  0.02  0.00  0.00  0.00
  YS02001898YS02001901    1.00   0.17  0.00  0.00  0.83  0.00  0.00  0.00  0.01  0.00
  YS02001901YS02001904    1.00   0.17  0.00  0.00  0.83  0.00  0.00  0.00  0.00  0.00
  YS02001904YS02001907    1.00   0.00  0.17  0.00  0.83  0.00  0.00  0.00  0.00  0.00
  YS02001907YS02006553    1.00   0.00  0.02  0.00  0.98  0.00  0.00  0.00  0.00  0.00
  YS02001910YS02001907    1.00   0.00  0.00  0.00  0.97  0.00  0.00  0.03  0.12  0.00
  YS02001915YS02001910    1.00   0.00  0.00  0.00  0.96  0.04  0.00  0.00  0.17  0.00
  YS02001918YS02001915    1.00   0.00  0.00  0.00  0.98  0.02  0.00  0.00  0.77  0.00
  YS02001920YS02001918    1.00   0.00  0.00  0.00  1.00  0.00  0.00  0.00  0.01  0.00
  YS02001923YS02001920    1.00   0.00  0.00  0.00  1.00  0.00  0.00  0.00  0.94  0.00
  YS02001926YS02001923    1.00   0.00  0.07  0.00  0.05  0.00  0.88  0.00  0.00  0.00
  YS02001929YS02001926    1.00   0.00  0.13  0.00  0.87  0.00  0.00  0.00  0.83  0.00
  YS02006553YS02006556    1.00   0.01  0.00  0.00  0.99  0.00  0.00  0.00  0.03  0.00
  YS02006556YS02006558    1.00   0.00  0.00  0.00  1.00  0.00  0.00  0.00  0.00  0.00
  YS02006558YS02006561    1.00   0.18  0.00  0.00  0.05  0.77  0.00  0.00  0.19  0.00
  YS02006561YS02001783    1.00   0.18  0.00  0.00  0.07  0.74  0.00  0.00  0.70  0.00
  YS02163301YS02001633    1.00   0.00  0.16  0.00  0.84  0.00  0.00  0.00  0.00  0.00
  YS02163601YS02164001    1.00   0.00  0.08  0.00  0.92  0.00  0.00  0.00  0.00  0.00
  YS02164001YS02001641    1.00   0.01  0.07  0.00  0.92  0.00  0.00  0.00  0.06  0.00
  YSB1154YSB6556          1.00   0.12  0.00  0.00  0.88  0.00  0.00  0.00  0.02  0.00
  YSB1171HS02004479       1.00   0.04  0.00  0.00  0.95  0.00  0.00  0.01  0.10  0.00
  YSB1174YSB1171          1.00   0.05  0.04  0.00  0.91  0.00  0.00  0.00  0.00  0.00
  YSB6556YSB1171          1.00   0.04  0.08  0.00  0.88  0.00  0.00  0.00  0.00  0.00
  
  
  *************************
  Conduit Surcharge Summary
  *************************
  
  ----------------------------------------------------------------------------
                                                           Hours        Hours 
                         --------- Hours Full --------   Above Full   Capacity
  Conduit                Both Ends  Upstream  Dnstream   Normal Flow   Limited
  ----------------------------------------------------------------------------
  HS02004478WS02006287        0.37      0.37      0.54      0.01         0.01
  HS02004479HS02004480        0.55      0.55      0.57      0.01         0.01
  HS02004480HS02004478        0.48      0.54      0.48      1.58         0.48
  HS02004770HS02004777        0.45      0.45      0.46      0.10         0.07
  HS02004777HS02004785        0.41      0.41      0.46      0.01         0.01
  HS02004785HS02004788        0.40      0.41      0.40      1.33         0.38
  HS02004788HS02004792        0.40      0.40      0.51      0.01         0.01
  HS02004792HS02004799        0.51      0.51      0.63      0.01         0.01
  HS02004799HS02004480        0.54      0.54      0.63      0.71         0.01
  HS02004802HS02004478        0.49      0.49      0.56      0.01         0.01
  HS02004807HS02004802        0.53      0.53      0.55      0.17         0.17
  HS02004817HS02004807        0.53      0.53      1.10      0.01         0.01
  HS02004817HS02004824        0.39      0.39      1.10      0.01         0.01
  HS02004824HS02004830        0.36      0.36      0.39      0.01         0.01
  HS02004830HS02004837        0.33      0.33      0.36      0.01         0.01
  HS02004837HS02004842        0.33      0.33      0.46      0.01         0.01
  HS02004842HS02004848        0.27      0.27      0.46      0.01         0.01
  HS02004848HS02004852        0.27      0.27      0.31      0.02         0.01
  HS02004852HS02004856        0.31      0.31      0.33      0.02         0.01
  HS02004856HS02004862        0.26      0.26      0.32      0.01         0.01
  HS02004862HS02004870        0.32      0.32      0.33      0.04         0.05
  HS02004870HS02004876        0.33      0.33      0.40      0.01         0.01
  HS02004876HS02004881        0.38      0.40      0.38      1.37         0.38
  HS02004881HS02006253        0.38      0.38      1.42      0.01         0.01
  HS02004901HS02004770        0.45      0.45      0.46      0.01         0.01
  WS02003072WS02003073        0.01      0.01      0.01      2.87         0.01
  WS02004401WS02004402        1.52      1.52      1.54      1.30         1.31
  WS02004402WS02004403        1.54      1.54      1.55      1.52         1.51
  WS02004403WS02004404        1.55      1.55      1.63      0.01         0.01
  WS02004404WS02004405        1.62      1.63      1.62      4.33         1.62
  WS02004405WS02004406        1.60      1.62      1.60      1.78         1.60
  WS02004406WS02004407        0.01      0.01      1.60      0.01         0.01
  WS02004407WS02004409        0.01      0.01      0.86      0.01         0.01
  WS02004409WS02004410        0.83      0.86      0.83      1.43         0.83
  WS02004410WS02004411        0.75      0.83      0.75      1.48         0.75
  WS02004411WS02004412        0.65      0.75      0.65      1.51         0.65
  WS02004412WS02004413        0.65      0.65      1.20      0.01         0.01
  WS02004413WS02003067        0.01      0.01      1.20      0.01         0.01
  WS02006109WS02006110        1.74      1.75      2.06      1.75         0.01
  WS02006110WS02006113        1.16      1.16      2.05      0.27         0.01
  WS02006111WS02006112        1.12      1.13      2.38      0.01         0.01
  WS02006112WS02006115        1.45      1.45      1.82      0.01         0.01
  WS02006113WS02006111        1.15      1.16      1.15      1.29         1.15
  WS02006115WS02006116        1.46      1.46      1.46      1.43         1.42
  WS02006116WS02004401        1.52      1.52      1.52      1.50         1.49
  WS02006228WS02006109        2.01      2.06      2.01      3.26         2.01
  WS02006229WS02006228        2.00      2.02      2.00      2.34         2.00
  WS02006230WS02006229        2.12      2.21      2.12      4.33         1.24
  WS02006231WS02006230        1.64      1.64      1.70      3.87         0.86
  WS02006232WS02006231        1.69      1.69      1.89      0.01         0.12
  WS02006234WS02006232        1.78      1.78      1.89      0.01         0.01
  WS02006235WS02006234        1.75      1.75      1.80      3.63         0.84
  WS02006238WS02006235        1.81      1.81      1.84      0.01         0.28
  WS02006239WS02006238        1.80      1.80      1.82      0.68         0.01
  WS02006240WS02006239        1.74      1.74      1.76      0.68         0.01
  WS02006242WS02006240        1.72      1.73      1.80      1.23         0.73
  WS02006243WS02006242        1.64      1.64      1.77      0.01         0.01
  WS02006245WS02006243        1.61      1.61      1.63      0.01         0.01
  WS02006247WS02006245        1.60      1.61      1.60      3.41         0.59
  WS02006248WS02006247        1.56      1.56      1.60      0.01         0.01
  WS02006249WS02006248        1.55      1.55      1.56      2.43         0.01
  WS02006251WS02006249        1.54      1.54      1.56      1.06         1.05
  WS02006252WS02006251        1.40      1.40      1.48      0.01         0.01
  WS02006253WS02006251        1.54      1.54      1.55      0.67         0.01
  WS02006256WS02006235        3.90      3.90      5.51      0.49         0.01
  WS02006280WS02006229        0.66      0.66      0.77      0.01         0.01
  WS02006284WS02006280        0.57      0.57      0.64      0.01         0.01
  WS02006287WS02006284        0.48      0.48      0.58      0.21         0.21
  YS02001580YS02001583        0.47      0.47      0.53      0.01         0.01
  YS02001583YS02001586        0.48      0.48      0.61      0.01         0.01
  YS02001586YS02001590        0.62      0.62      0.69      0.01         0.01
  YS02001590YS02001593        0.69      0.69      0.71      0.73         0.01
  YS02001593YS02001596        0.70      0.70      0.82      0.01         0.01
  YS02001596YS02001600        0.88      0.88      1.15      0.01         0.01
  YS02001600YS02001601        1.28      1.28      1.56      0.01         0.01
  YS02001601YS02001602        1.48      1.48      1.59      0.93         0.01
  YS02001602YS02001605        1.46      1.46      1.48      2.19         0.01
  YS02001605YS02001607        1.43      1.46      1.46      1.27         1.17
  YS02001607YS02001610        0.69      0.69      0.74      0.01         0.01
  YS02001610YS02001613        0.68      0.68      0.74      0.01         0.01
  YS02001613YS02001616        0.63      0.63      0.68      0.01         0.01
  YS02001616YS02001619        0.61      0.61      0.63      0.01         0.01
  YS02001619YS02001622        0.61      0.61      0.61      0.67         0.58
  YS02001622YS02001625        0.61      0.61      1.24      0.01         0.01
  YS02001625YS02001629        0.54      0.54      1.24      0.01         0.01
  YS02001629YS02163301        1.27      1.27      1.29      0.25         0.24
  YS02001633YS02163601        1.32      1.32      1.37      0.42         0.42
  YS02001641YS02001644        1.31      1.32      1.31      1.42         1.20
  YS02001644YS02001647        0.59      0.59      1.31      0.04         0.01
  YS02001647YS02001649        0.59      0.59      1.29      0.01         0.01
  YS02001649YS02001757        1.28      1.29      1.44      0.35         0.30
  YS02001652YS02001649        0.52      0.52      1.29      0.01         0.01
  YS02001655YS02001652        0.17      0.17      0.32      0.01         0.01
  YS02001658YS02001655        0.08      0.08      0.17      0.01         0.01
  YS02001661YS02001658        0.01      0.01      0.08      0.01         0.01
  YS02001664YS02001661        0.01      0.01      0.02      0.01         0.01
  YS02001745YS02001748        0.01      0.01      0.01      0.01         0.01
  YS02001748YS02001751        0.05      0.05      0.10      0.01         0.01
  YS02001751YS02001754        0.10      0.10      0.17      0.01         0.01
  YS02001754YS02001757        0.26      0.26      1.44      0.01         0.01
  YS02001757CaochengTiaoxuchi        1.24      1.44      2.25      0.35         0.11
  YS02001759YS02001757        1.29      1.29      1.44      0.01         0.02
  YS02001762YS02001759        1.26      1.26      1.29      0.01         0.02
  YS02001765YS02001762        0.97      0.97      1.26      0.01         0.01
  YS02001767YS02001765        0.81      0.81      0.97      0.01         0.04
  YS02001770YS02001767        0.79      0.80      0.81      0.45         0.30
  YS02001774YS02001770        0.67      0.67      1.20      0.01         0.01
  YS02001779YS02001774        0.19      0.19      1.20      0.01         0.01
  YS02001783YS02001784        0.42      0.45      0.42      0.58         0.42
  YS02001784YS02001785        0.33      0.42      0.33      0.81         0.33
  YS02001786YS02001788        0.01      0.33      0.01      0.68         0.01
  YS02001790YS02001791        0.01      0.01      0.01      0.41         0.01
  YS02001793JiankangQianchi        0.01      0.01      0.26      0.01         0.01
  YS02001882YS02001884        0.40      0.40      0.41      0.01         0.01
  YS02001884YS02001887        0.43      0.43      0.44      0.01         0.01
  YS02001887YS02001890        0.45      0.45      0.46      0.06         0.01
  YS02001890YS02001895        0.39      0.39      0.48      0.01         0.01
  YS02001895YS02001898        0.38      0.38      0.39      0.01         0.01
  YS02001898YS02001901        0.39      0.39      0.43      0.01         0.01
  YS02001901YS02001904        0.42      0.42      0.43      0.01         0.01
  YS02001904YS02001907        0.42      0.42      0.66      0.01         0.01
  YS02001907YS02006553        0.81      0.81      0.88      0.01         0.01
  YS02001910YS02001907        0.48      0.48      0.65      0.01         0.01
  YS02001915YS02001910        0.39      0.39      0.48      0.01         0.01
  YS02001918YS02001915        0.32      0.32      0.39      0.01         0.01
  YS02001920YS02001918        0.32      0.32      0.33      0.01         0.01
  YS02001923YS02001920        0.27      0.27      0.33      0.01         0.01
  YS02001926YS02001923        0.01      0.01      0.02      0.01         0.01
  YS02001929YS02001926        0.01      0.01      0.02      0.01         0.01
  YS02006553YS02006556        0.56      0.56      0.66      0.01         0.01
  YS02006556YS02006558        0.61      0.61      0.67      0.01         0.01
  YS02006558YS02006561        0.35      0.55      0.35      0.76         0.35
  YS02006561YS02001783        0.28      0.28      0.45      0.01         0.01
  YS02163301YS02001633        1.29      1.29      1.34      0.01         0.01
  YS02163601YS02164001        1.31      1.31      1.37      0.19         0.01
  YS02164001YS02001641        1.30      1.31      1.32      0.67         0.62
  YSB1154YSB6556              0.60      0.60      0.74      0.01         0.01
  YSB1171HS02004479           0.50      0.50      0.75      0.01         0.01
  YSB1174YSB1171              0.66      0.66      1.00      0.01         0.01
  YSB6556YSB1171              0.60      0.60      1.17      0.01         0.01
  
  
  ***************
  Pumping Summary
  ***************
  
  ---------------------------------------------------------------------------------------------------------
                                                  Min       Avg       Max     Total     Power    % Time Off
                        Percent   Number of      Flow      Flow      Flow    Volume     Usage    Pump Curve
  Pump                 Utilized   Start-Ups       LPS       LPS       LPS  10^6 ltr     Kw-hr    Low   High
  ---------------------------------------------------------------------------------------------------------
  CC-R1                   48.96          10      0.00    450.56    683.00     3.565     61.92    0.0   84.1
  CC-R2                   66.67          10      0.00    471.13    683.00     5.949    103.02    0.0   83.6
  CC-S1                   29.17           9      0.00    200.00    200.00     1.680      9.81    0.0   25.9
  CC-S2                   19.79           7      0.00    184.19    200.00     0.913      5.23    0.0   31.6
  JK-R1                   55.21           7      0.00    158.06   1000.00     2.865      8.98    0.0    0.0
  JK-R2                   16.67          10      0.00    147.48   1000.00     1.184      4.01    0.0    0.0
  JK-S                    41.67           8      0.00     64.99    300.00     0.719     15.55    0.0    0.0
  XR-1                    97.91           1      0.00     95.00     95.00     2.679      9.63    0.0    0.0
  XR-2                    93.95           1      0.00     95.00     95.00     2.570      8.79    0.0    0.0
  XR-3                     0.00           0      0.00      0.00      0.00     0.000      0.00    0.0    0.0
  XR-4                     0.00           0      0.00      0.00      0.00     0.000      0.00    0.0    0.0
  

  Analysis begun on:  Thu Jun 15 19:50:48 2023
  Analysis ended on:  Thu Jun 15 19:51:00 2023
  Total elapsed time: 00:00:12