
  OWA STORM WATER MANAGEMENT MODEL - VERSION v5.2.3 (OWA 2023-03-28)
  ------------------------------------------------------------

  WARNING 04: minimum elevation drop used for Conduit WS02004404WS02004405
  WARNING 03: negative offset ignored for Link YS02001904YS02001907
  
  ****************
  Analysis Options
  ****************
  Flow Units ............... LPS
  Process Models:
    Rainfall/Runoff ........ YES
    RDII ................... NO
    Snowmelt ............... NO
    Groundwater ............ NO
    Flow Routing ........... YES
    Ponding Allowed ........ NO
    Water Quality .......... NO
  Infiltration Method ...... HORTON
  Flow Routing Method ...... DYNWAVE
  Surcharge Method ......... EXTRAN
  Starting Date ............ 08/28/2015 08:00:00
  Ending Date .............. 08/28/2015 16:00:00
  Antecedent Dry Days ...... 8.0
  Report Time Step ......... 00:01:00
  Wet Time Step ............ 00:01:00
  Dry Time Step ............ 00:01:00
  Routing Time Step ........ 30.00 sec
  Variable Time Step ....... YES
  Maximum Trials ........... 8
  Number of Threads ........ 1
  Head Tolerance ........... 0.001500 m
  
  
  **************************        Volume         Depth
  Runoff Quantity Continuity     hectare-m            mm
  **************************     ---------       -------
  Total Precipitation ......         3.237        53.431
  Evaporation Loss .........         0.000         0.000
  Infiltration Loss ........         0.233         3.853
  Surface Runoff ...........         2.943        48.585
  Final Storage ............         0.061         1.006
  Continuity Error (%) .....        -0.025
  
  
  **************************        Volume        Volume
  Flow Routing Continuity        hectare-m      10^6 ltr
  **************************     ---------     ---------
  Dry Weather Inflow .......         0.630         6.296
  Wet Weather Inflow .......         2.943        29.431
  Groundwater Inflow .......         0.000         0.000
  RDII Inflow ..............         0.000         0.000
  External Inflow ..........         0.105         1.045
  External Outflow .........         2.781        27.806
  Flooding Loss ............         1.218        12.183
  Evaporation Loss .........         0.000         0.000
  Exfiltration Loss ........         0.000         0.000
  Initial Stored Volume ....         0.303         3.031
  Final Stored Volume ......         0.178         1.784
  Continuity Error (%) .....        -4.950
  
  
  *************************
  Highest Continuity Errors
  *************************
  Node JK-storage (-39.95%)
  Node YS02001583 (-5.71%)
  Node YS02001884 (5.04%)
  Node CC-storage (-3.07%)
  Node HS02004842 (1.89%)
  
  
  ***************************
  Time-Step Critical Elements
  ***************************
  Link WS02006252WS02006251 (58.15%)
  Link WS02006280WS02006229 (16.76%)
  Link YS02001793JiankangQianchi (8.53%)
  Link WS02006238WS02006235 (5.16%)
  Link WS02003066WSF200 (2.19%)
  
  
  ********************************
  Highest Flow Instability Indexes
  ********************************
  Link WS02006113WS02006111 (32)
  Link WS02006111WS02006112 (17)
  Link WS02006238WS02006235 (13)
  Link WS02006252WS02006251 (12)
  Link WS02004404WS02004405 (12)
  
  
  *********************************
  Most Frequent Nonconverging Nodes
  *********************************
  Node CC-1 (8.20%)
  Node CC-2 (8.20%)
  Node JK-1 (8.20%)
  Node JK-2 (8.20%)
  Node WSC (8.20%)
  
  
  *************************
  Routing Time Step Summary
  *************************
  Minimum Time Step           :     0.02 sec
  Average Time Step           :     1.59 sec
  Maximum Time Step           :    30.00 sec
  % of Time in Steady State   :     0.00
  Average Iterations per Step :     2.89
  % of Steps Not Converging   :     8.20
  Time Step Frequencies       :
     30.000 - 13.228 sec      :     0.01 %
     13.228 -  5.833 sec      :     1.44 %
      5.833 -  2.572 sec      :    16.23 %
      2.572 -  1.134 sec      :    23.09 %
      1.134 -  0.500 sec      :    59.23 %
  
  
  ***************************
  Subcatchment Runoff Summary
  ***************************
  
  ------------------------------------------------------------------------------------------------------------------------------
                            Total      Total      Total      Total     Imperv       Perv      Total       Total     Peak  Runoff
                           Precip      Runon       Evap      Infil     Runoff     Runoff     Runoff      Runoff   Runoff   Coeff
  Subcatchment                 mm         mm         mm         mm         mm         mm         mm    10^6 ltr      LPS
  ------------------------------------------------------------------------------------------------------------------------------
  sub0                      53.43       0.00       0.00       0.96      48.44       2.78      51.22        0.04    35.44   0.959
  sub1                      53.43       0.00       0.00       1.64      46.31       4.24      50.54        0.34   235.17   0.946
  sub10                     53.43       0.00       0.00       1.16      47.88       3.12      51.00        0.56   400.63   0.954
  sub11                     53.43       0.00       0.00       1.14      47.89       3.14      51.03        0.59   447.72   0.955
  sub12                     53.43       0.00       0.00       1.85      45.31       5.10      50.41        0.44   363.58   0.943
  sub14                     53.43       0.00       0.00       1.30      47.37       3.51      50.88        0.48   355.17   0.952
  sub15                     53.43       0.00       0.00       5.14      36.43      10.90      47.33        0.81   546.07   0.886
  sub16                     53.43       0.00       0.00       5.29      34.89      12.34      47.24        0.49   369.60   0.884
  sub17                     53.43       0.00       0.00       5.16      35.41      11.94      47.35        0.41   299.50   0.886
  sub2                      53.43       0.00       0.00       7.35      32.76      12.43      45.19        0.42   237.51   0.846
  sub22                     53.43       0.00       0.00       7.80      29.68      15.18      44.86        2.83  1813.94   0.840
  sub23                     53.43       0.00       0.00       6.35      32.80      13.43      46.23        2.21  1504.41   0.865
  sub3                      53.43       0.00       0.00       7.96      32.72      11.81      44.53        1.00   508.55   0.833
  sub4                      53.43       0.00       0.00       1.84      46.14       4.03      50.18        1.05   563.02   0.939
  sub5                      53.43       0.00       0.00       1.01      48.39       2.73      51.12        0.58   405.35   0.957
  sub60                     53.43       0.00       0.00       1.74      45.82       4.67      50.49        0.66   508.18   0.945
  sub61                     53.43       0.00       0.00       2.53      43.22       6.55      49.77        0.91   705.34   0.932
  sub62                     53.43       0.00       0.00       1.16      47.87       3.11      50.98        1.40   982.55   0.954
  sub63                     53.43       0.00       0.00       4.70      36.97      10.80      47.77        1.08   782.14   0.894
  sub64                     53.43       0.00       0.00       2.37      44.21       5.65      49.86        1.20   798.54   0.933
  sub65                     53.43       0.00       0.00       2.05      45.23       4.90      50.13        1.38   890.04   0.938
  sub66                     53.43       0.00       0.00       5.84      36.86       9.66      46.52        2.17  1143.92   0.871
  sub67                     53.43       0.00       0.00       1.12      47.91       3.16      51.07        0.95   772.25   0.956
  sub68                     53.43       0.00       0.00       2.10      44.76       5.38      50.15        1.38  1006.41   0.939
  sub69                     53.43       0.00       0.00       1.86      45.31       6.15      51.46        1.90  1183.81   0.963
  sub7                      53.43       0.00       0.00       1.28      47.38       3.53      50.91        0.17   133.06   0.953
  sub70                     53.43       0.00       0.00       6.26      35.10      11.90      47.00        1.36   640.47   0.880
  sub71                     53.43       0.00       0.00       1.19      47.83       3.08      50.91        1.33   863.38   0.953
  sub72                     53.43       0.00       0.00       1.06      48.29       2.68      50.97        0.70   413.12   0.954
  sub8                      53.43       0.00       0.00       1.29      47.37       3.52      50.89        0.33   242.34   0.952
  sub9                      53.43       0.00       0.00       1.30      47.37       3.51      50.88        0.24   180.79   0.952
  
  
  ******************
  Node Depth Summary
  ******************
  
  ---------------------------------------------------------------------------------
                                 Average  Maximum  Maximum  Time of Max    Reported
                                   Depth    Depth      HGL   Occurrence   Max Depth
  Node                 Type       Meters   Meters   Meters  days hr:min      Meters
  ---------------------------------------------------------------------------------
  HS02004478           JUNCTION     0.18     1.84    11.07     0  02:07        1.84
  HS02004479           JUNCTION     0.25     1.85    11.05     0  02:07        1.85
  HS02004480           JUNCTION     0.22     1.81    11.05     0  02:07        1.81
  HS02004770           JUNCTION     0.23     1.42    11.25     0  02:06        1.42
  HS02004777           JUNCTION     0.25     1.48    11.28     0  02:06        1.48
  HS02004785           JUNCTION     0.15     1.49    11.39     0  02:06        1.39
  HS02004788           JUNCTION     0.12     1.42    11.32     0  02:06        1.41
  HS02004792           JUNCTION     0.16     1.60    11.12     0  02:07        1.60
  HS02004799           JUNCTION     0.27     1.76    10.97     0  02:07        1.76
  HS02004802           JUNCTION     0.28     1.92    11.05     0  02:07        1.92
  HS02004807           JUNCTION     0.25     1.92    11.09     0  02:09        1.92
  HS02004817           JUNCTION     0.55     2.44    11.29     0  02:09        2.35
  HS02004824           JUNCTION     0.13     2.01    11.41     0  02:09        1.91
  HS02004830           JUNCTION     0.14     2.03    11.50     0  02:09        1.86
  HS02004837           JUNCTION     0.11     1.99    11.57     0  02:09        1.78
  HS02004842           JUNCTION     0.40     2.22    11.49     0  02:09        2.11
  HS02004848           JUNCTION     0.09     2.07    11.67     0  02:09        1.79
  HS02004852           JUNCTION     0.10     2.12    11.63     0  02:09        1.85
  HS02004856           JUNCTION     0.16     2.07    11.50     0  02:09        1.90
  HS02004862           JUNCTION     0.11     2.00    11.38     0  02:09        1.88
  HS02004870           JUNCTION     0.10     2.10    11.39     0  02:09        1.87
  HS02004876           JUNCTION     0.14     2.26    11.29     0  02:09        1.96
  HS02004881           JUNCTION     0.08     2.15    11.18     0  02:09        1.72
  HS02004901           JUNCTION     0.24     1.42    11.24     0  02:06        1.42
  WS02001211           JUNCTION     0.62     0.81     5.65     0  02:16        0.81
  WS02001212           JUNCTION     0.36     0.57     5.64     0  02:16        0.57
  WS02001213           JUNCTION     0.58     0.87     5.63     0  02:16        0.87
  WS02003059           JUNCTION     0.64     0.94     5.62     0  02:16        0.94
  WS02003060           JUNCTION     0.37     0.69     5.62     0  02:14        0.69
  WS02003066           JUNCTION     0.23     0.46     6.01     0  02:14        0.46
  WS02003067           JUNCTION     0.54     0.89     6.21     0  02:13        0.89
  WS02003069           JUNCTION     0.42     0.78     5.36     0  02:15        0.78
  WS02003072           JUNCTION     0.48     0.81     5.18     0  02:15        0.81
  WS02003073           JUNCTION     0.29     0.52     4.58     0  02:16        0.51
  WS02004138           JUNCTION     0.13     0.14     7.39     0  00:31        0.14
  WS02004139           JUNCTION     0.56     0.74     5.65     0  02:17        0.74
  WS02004401           JUNCTION     0.75     1.88     7.88     0  02:12        1.87
  WS02004402           JUNCTION     0.77     1.82     7.78     0  02:12        1.81
  WS02004403           JUNCTION     0.78     1.74     7.67     0  02:13        1.74
  WS02004404           JUNCTION     0.85     1.76     7.61     0  02:13        1.76
  WS02004405           JUNCTION     0.84     1.70     7.55     0  02:13        1.69
  WS02004406           JUNCTION     0.83     1.58     7.41     0  02:13        1.57
  WS02004407           JUNCTION     0.25     0.94     7.25     0  02:13        0.93
  WS02004409           JUNCTION     0.52     1.39     7.16     0  02:13        1.38
  WS02004410           JUNCTION     0.52     1.30     7.02     0  02:13        1.29
  WS02004411           JUNCTION     0.53     1.21     6.89     0  02:13        1.20
  WS02004412           JUNCTION     0.54     1.11     6.75     0  02:13        1.10
  WS02004413           JUNCTION     0.67     1.15     6.62     0  02:13        1.15
  WS02006109           JUNCTION     0.91     2.64     9.26     0  02:07        2.64
  WS02006110           JUNCTION     0.87     2.40     8.98     0  02:12        2.39
  WS02006111           JUNCTION     0.37     1.76     8.46     0  02:12        1.75
  WS02006112           JUNCTION     0.95     2.68     8.56     0  00:00        2.39
  WS02006113           JUNCTION     0.45     1.84     8.73     0  02:12        1.83
  WS02006115           JUNCTION     0.65     1.98     8.12     0  02:12        1.98
  WS02006116           JUNCTION     0.73     1.97     8.01     0  02:13        1.97
  WS02006228           JUNCTION     0.95     3.03     9.68     0  02:07        3.03
  WS02006229           JUNCTION     0.94     3.25     9.94     0  02:07        3.25
  WS02006230           JUNCTION     0.88     2.65     9.39     0  02:04        2.65
  WS02006231           JUNCTION     0.62     2.20     9.32     0  02:33        2.20
  WS02006232           JUNCTION     0.73     2.18     9.22     0  02:00        2.18
  WS02006234           JUNCTION     0.62     1.96     9.12     0  02:00        1.96
  WS02006235           JUNCTION     0.63     2.00     9.16     0  02:00        2.00
  WS02006238           JUNCTION     0.66     2.12     9.27     0  02:00        2.12
  WS02006239           JUNCTION     0.60     1.90     9.10     0  02:45        1.87
  WS02006240           JUNCTION     0.56     1.70     8.99     0  02:45        1.66
  WS02006242           JUNCTION     0.60     1.55     8.82     0  01:46        1.55
  WS02006243           JUNCTION     0.49     1.48     8.90     0  01:50        1.37
  WS02006245           JUNCTION     0.48     1.43     8.91     0  01:50        1.26
  WS02006247           JUNCTION     0.49     1.47     8.97     0  01:50        1.23
  WS02006248           JUNCTION     0.44     1.10     8.69     0  01:50        1.10
  WS02006249           JUNCTION     0.47     1.09     8.69     0  01:50        1.09
  WS02006251           JUNCTION     0.52     2.21     9.88     0  02:09        2.13
  WS02006252           JUNCTION     0.36     1.50     9.74     0  02:09        1.50
  WS02006253           JUNCTION     0.58     3.52    11.16     0  02:09        2.99
  WS02006256           JUNCTION     0.94     2.35     9.28     0  00:11        2.35
  WS02006280           JUNCTION     0.24     1.83    10.10     0  02:07        1.83
  WS02006284           JUNCTION     0.50     2.08    10.48     0  02:07        2.08
  WS02006287           JUNCTION     0.24     1.89    10.84     0  02:07        1.89
  WSF200               JUNCTION     0.22     0.52     5.75     0  02:14        0.52
  YS02001580           JUNCTION     0.06     1.05     9.59     0  02:06        0.77
  YS02001583           JUNCTION     0.09     1.14     9.64     0  02:06        0.82
  YS02001586           JUNCTION     0.16     1.13     9.30     0  02:06        1.13
  YS02001590           JUNCTION     0.25     1.40     9.26     0  02:06        1.37
  YS02001593           JUNCTION     0.17     1.37     9.23     0  02:04        1.28
  YS02001596           JUNCTION     0.23     1.68     9.10     0  02:06        1.65
  YS02001600           JUNCTION     0.28     1.87     9.00     0  02:06        1.86
  YS02001601           JUNCTION     0.48     2.06     8.90     0  02:04        2.06
  YS02001602           JUNCTION     0.40     1.87     8.77     0  02:05        1.87
  YS02001605           JUNCTION     0.37     1.78     8.68     0  02:05        1.78
  YS02001607           JUNCTION     0.37     1.66     8.50     0  02:06        1.65
  YS02001610           JUNCTION     0.42     1.68     8.48     0  02:05        1.68
  YS02001613           JUNCTION     0.38     1.70     8.54     0  02:06        1.67
  YS02001616           JUNCTION     0.31     1.61     8.52     0  02:06        1.60
  YS02001619           JUNCTION     0.29     1.61     8.54     0  02:06        1.61
  YS02001622           JUNCTION     0.27     1.59     8.49     0  02:06        1.58
  YS02001625           JUNCTION     0.53     1.78     8.38     0  02:06        1.78
  YS02001629           JUNCTION     0.39     1.85     8.40     0  02:06        1.85
  YS02001633           JUNCTION     0.47     2.05     8.50     0  02:11        2.05
  YS02001641           JUNCTION     0.46     1.96     8.40     0  02:11        1.94
  YS02001644           JUNCTION     0.45     1.92     8.35     0  02:11        1.92
  YS02001647           JUNCTION     0.25     1.83     8.44     0  02:11        1.83
  YS02001649           JUNCTION     0.31     2.05     8.44     0  02:11        2.05
  YS02001652           JUNCTION     0.20     1.92     8.51     0  02:11        1.73
  YS02001655           JUNCTION     0.13     2.01     8.86     0  02:11        1.53
  YS02001658           JUNCTION     0.08     2.03     9.17     0  02:11        1.27
  YS02001661           JUNCTION     0.12     1.42     8.82     0  02:12        1.06
  YS02001664           JUNCTION     0.05     0.70     8.63     0  02:12        0.59
  YS02001745           JUNCTION     0.04     0.93     8.45     0  02:11        0.93
  YS02001748           JUNCTION     0.07     1.83     8.91     0  02:11        1.32
  YS02001751           JUNCTION     0.11     1.78     8.66     0  02:11        1.47
  YS02001754           JUNCTION     0.18     2.20     8.81     0  02:11        2.20
  YS02001757           JUNCTION     0.36     2.21     8.47     0  02:11        2.21
  YS02001759           JUNCTION     0.29     2.21     8.57     0  02:11        2.21
  YS02001762           JUNCTION     0.28     2.04     8.44     0  02:11        2.03
  YS02001765           JUNCTION     0.26     2.01     8.46     0  02:11        1.95
  YS02001767           JUNCTION     0.25     1.98     8.47     0  02:11        1.93
  YS02001770           JUNCTION     0.26     1.95     8.45     0  02:11        1.95
  YS02001774           JUNCTION     0.32     2.00     8.43     0  02:11        2.00
  YS02001779           JUNCTION     0.15     1.68     8.37     0  02:10        1.68
  YS02001783           JUNCTION     0.20     1.43     7.57     0  02:09        1.23
  YS02001784           JUNCTION     0.22     1.22     7.29     0  02:09        1.11
  YS02001786           JUNCTION     0.19     0.94     6.97     0  02:09        0.87
  YS02001788           JUNCTION     0.13     0.62     6.60     0  02:13        0.62
  YS02001790           JUNCTION     0.16     0.72     6.37     0  02:16        0.72
  YS02001791           JUNCTION     0.10     0.44     5.91     0  02:16        0.44
  YS02001793           JUNCTION     0.06     0.25     5.08     0  02:22        0.25
  YS02001882           JUNCTION     0.26     1.77     8.48     0  02:09        1.77
  YS02001884           JUNCTION     0.35     1.86     8.47     0  02:09        1.86
  YS02001887           JUNCTION     0.42     1.90     8.44     0  02:09        1.90
  YS02001890           JUNCTION     0.45     1.81     8.32     0  02:08        1.81
  YS02001895           JUNCTION     0.23     1.61     8.36     0  02:08        1.61
  YS02001898           JUNCTION     0.24     1.64     8.38     0  02:08        1.64
  YS02001901           JUNCTION     0.35     1.71     8.32     0  02:08        1.71
  YS02001904           JUNCTION     0.33     1.64     8.27     0  02:09        1.63
  YS02001907           JUNCTION     0.64     1.96     8.25     0  02:09        1.96
  YS02001910           JUNCTION     0.44     2.00     8.51     0  02:09        1.95
  YS02001915           JUNCTION     0.26     1.94     8.65     0  02:09        1.89
  YS02001918           JUNCTION     0.13     1.81     8.88     0  02:09        1.81
  YS02001920           JUNCTION     0.21     2.14     9.15     0  02:09        2.08
  YS02001923           JUNCTION     0.10     2.03     9.29     0  02:09        2.03
  YS02001926           JUNCTION     0.14     1.90     9.35     0  02:09        1.90
  YS02001929           JUNCTION     0.07     1.78     9.47     0  02:09        1.67
  YS02006553           JUNCTION     0.64     2.02     8.30     0  02:09        1.99
  YS02006556           JUNCTION     0.62     2.04     8.36     0  02:09        2.01
  YS02006558           JUNCTION     0.66     2.09     8.36     0  02:09        2.07
  YS02006561           JUNCTION     0.13     1.13     7.79     0  02:09        0.90
  YS02163301           JUNCTION     0.42     1.94     8.46     0  02:11        1.94
  YS02163601           JUNCTION     0.51     2.05     8.44     0  02:11        2.02
  YS02164001           JUNCTION     0.44     1.96     8.42     0  02:11        1.94
  YSB1154              JUNCTION     0.38     2.03    11.09     0  02:11        2.03
  YSB1171              JUNCTION     0.52     1.95    10.85     0  02:07        1.95
  YSB1174              JUNCTION     0.34     1.92    11.03     0  02:07        1.92
  YSB6556              JUNCTION     0.28     1.80    10.97     0  02:07        1.80
  CC-1                 OUTFALL      0.00     0.00     0.00     0  00:00        0.00
  CC-2                 OUTFALL      0.00     0.00     0.00     0  00:00        0.00
  JK-1                 OUTFALL      0.00     0.00     0.00     0  00:00        0.00
  JK-2                 OUTFALL      0.00     0.00     0.00     0  00:00        0.00
  WSC                  OUTFALL      0.29     0.51     1.18     0  02:17        0.51
  CC-storage           STORAGE      0.66     1.66     7.16     0  03:10        1.66
  JK-storage           STORAGE      0.13     3.00     3.80     0  00:05        3.00
  XR-storage           STORAGE      7.86     9.26     7.26     0  08:00        9.26
  
  
  *******************
  Node Inflow Summary
  *******************
  
  -------------------------------------------------------------------------------------------------
                                  Maximum  Maximum                  Lateral       Total        Flow
                                  Lateral    Total  Time of Max      Inflow      Inflow     Balance
                                   Inflow   Inflow   Occurrence      Volume      Volume       Error
  Node                 Type           LPS      LPS  days hr:min    10^6 ltr    10^6 ltr     Percent
  -------------------------------------------------------------------------------------------------
  HS02004478           JUNCTION      0.00  2305.63     0  02:12           0        7.45      -0.013
  HS02004479           JUNCTION      0.00   471.71     0  02:09           0       0.729       0.096
  HS02004480           JUNCTION      0.00  2109.37     0  02:07           0        5.55       0.042
  HS02004770           JUNCTION   1504.41  1504.41     0  02:14         2.2        2.42       0.119
  HS02004777           JUNCTION      0.03   760.76     0  02:06    0.000864        1.64       0.313
  HS02004785           JUNCTION      0.15   765.31     0  02:06     0.00432        1.64       0.019
  HS02004788           JUNCTION    547.74   880.19     0  02:06       0.862         2.5      -0.002
  HS02004792           JUNCTION   1814.22  2616.60     0  02:14        2.84        5.34       0.004
  HS02004799           JUNCTION    355.17  1748.71     0  02:07       0.484        4.98       0.049
  HS02004802           JUNCTION      0.00  1232.41     0  02:15           0           2       0.194
  HS02004807           JUNCTION    447.72  1371.87     0  02:14       0.593        2.06       0.199
  HS02004817           JUNCTION      0.60   931.21     0  02:14      0.0173        1.53       1.107
  HS02004824           JUNCTION    563.07   930.27     0  02:14        1.05        1.71       0.040
  HS02004830           JUNCTION      0.15   656.05     0  02:07     0.00432       0.853       0.146
  HS02004837           JUNCTION    406.98   862.02     0  02:07       0.745        1.14       0.069
  HS02004842           JUNCTION      0.00   856.31     0  02:07           0       0.693       1.923
  HS02004848           JUNCTION    508.55  1096.03     0  02:09           1        1.53      -0.002
  HS02004852           JUNCTION      0.00  1083.31     0  02:09           0        1.39       0.014
  HS02004856           JUNCTION    180.79  1211.59     0  02:09       0.245        1.63       0.032
  HS02004862           JUNCTION    237.71  1237.56     0  02:09       0.427        2.06      -0.020
  HS02004870           JUNCTION    242.34  1360.00     0  02:09       0.325        2.38      -0.023
  HS02004876           JUNCTION    235.17  1438.16     0  02:13       0.336        2.72       0.023
  HS02004881           JUNCTION    133.06  1572.35     0  02:13       0.172        2.89       0.006
  HS02004901           JUNCTION    369.60   614.40     0  02:14       0.495       0.737       0.226
  WS02001211           JUNCTION      7.35   206.69     0  02:50       0.212        5.44       0.612
  WS02001212           JUNCTION      0.00   215.12     0  02:50           0        5.41       0.290
  WS02001213           JUNCTION      0.00   220.28     0  02:49           0        5.39       0.332
  WS02003059           JUNCTION      0.00   225.69     0  02:49           0        5.38       0.595
  WS02003060           JUNCTION     16.53  1504.78     0  02:14       0.476          14       0.106
  WS02003066           JUNCTION      0.00  1308.12     0  02:14           0        8.17       0.018
  WS02003067           JUNCTION      0.00  1307.71     0  02:14           0        8.17       0.052
  WS02003069           JUNCTION      0.32  1504.90     0  02:15     0.00922          14       0.109
  WS02003072           JUNCTION      0.00  1504.66     0  02:15           0          14       0.149
  WS02003073           JUNCTION      1.82  1506.91     0  02:16      0.0524          14       0.154
  WS02004138           JUNCTION      0.00   190.00     0  00:29           0        5.25       0.053
  WS02004139           JUNCTION      0.32   190.32     0  00:31     0.00924        5.26       0.508
  WS02004401           JUNCTION      0.00  1307.29     0  02:13           0        8.28       0.137
  WS02004402           JUNCTION      0.00  1307.65     0  02:13           0        8.27       0.134
  WS02004403           JUNCTION      0.00  1308.52     0  02:13           0        8.26       0.132
  WS02004404           JUNCTION      0.16  1309.63     0  02:13     0.00467        8.25       0.108
  WS02004405           JUNCTION      0.04  1310.59     0  02:13      0.0011        8.25       0.154
  WS02004406           JUNCTION      0.00  1310.87     0  02:13           0        8.23       0.261
  WS02004407           JUNCTION      0.00  1311.19     0  02:13           0        8.21       0.017
  WS02004409           JUNCTION      0.00  1307.33     0  02:14           0         8.2       0.038
  WS02004410           JUNCTION      0.00  1307.52     0  02:14           0         8.2       0.057
  WS02004411           JUNCTION      0.00  1307.72     0  02:14           0         8.2       0.070
  WS02004412           JUNCTION      0.00  1307.70     0  02:14           0        8.19       0.097
  WS02004413           JUNCTION      0.00  1307.56     0  02:13           0        8.18       0.169
  WS02006109           JUNCTION      1.23  1308.01     0  00:00      0.0354        8.06       0.141
  WS02006110           JUNCTION      0.00  1121.08     0  02:26           0        7.83      -0.454
  WS02006111           JUNCTION      0.00  1176.04     0  00:00           0        7.86      -0.481
  WS02006112           JUNCTION    299.50  2307.30     0  00:00       0.406         8.3      -0.005
  WS02006113           JUNCTION      0.00  1121.16     0  02:26           0        7.82      -0.580
  WS02006115           JUNCTION      0.00  2152.75     0  00:00           0        8.28       0.053
  WS02006116           JUNCTION      0.00  1308.12     0  02:13           0        8.28       0.032
  WS02006228           JUNCTION      0.00  1288.65     0  02:12           0           8       0.076
  WS02006229           JUNCTION      0.00  2306.06     0  02:12           0        9.87       0.102
  WS02006230           JUNCTION     10.28  1027.11     0  02:12       0.296        4.32       0.115
  WS02006231           JUNCTION      0.00   453.46     0  02:12           0        3.28      -0.155
  WS02006232           JUNCTION      0.00   453.41     0  02:11           0        3.28       0.125
  WS02006234           JUNCTION      0.00   453.41     0  02:12           0        3.27      -0.056
  WS02006235           JUNCTION      0.00   415.27     0  02:19           0        3.27       0.065
  WS02006238           JUNCTION      0.00   415.39     0  02:19           0        2.84      -0.095
  WS02006239           JUNCTION      0.00   415.01     0  02:15           0        2.83      -0.173
  WS02006240           JUNCTION      0.00   414.69     0  02:15           0        2.83       0.005
  WS02006242           JUNCTION      0.00   414.97     0  02:15           0        2.84       0.021
  WS02006243           JUNCTION      0.00   308.29     0  03:07           0        2.51      -0.190
  WS02006245           JUNCTION      0.00   308.29     0  03:07           0        2.52       0.376
  WS02006247           JUNCTION      0.00   308.29     0  03:07           0        2.52       0.044
  WS02006248           JUNCTION      0.00   340.01     0  02:04           0        2.74      -0.079
  WS02006249           JUNCTION      0.00  1357.66     0  02:13           0        4.83       0.145
  WS02006251           JUNCTION      0.08  1609.37     0  02:13     0.00222        4.94       0.004
  WS02006252           JUNCTION      0.00   652.57     0  02:13           0        2.26      -0.392
  WS02006253           JUNCTION     35.44  1608.67     0  02:13      0.0415        2.96       0.019
  WS02006256           JUNCTION      0.00   300.00     0  01:40           0        1.05      -0.023
  WS02006280           JUNCTION      0.00  2304.08     0  02:12           0        7.43       0.005
  WS02006284           JUNCTION      0.10  2304.74     0  02:12     0.00275        7.44       0.006
  WS02006287           JUNCTION      0.00  2305.57     0  02:12           0        7.43       0.010
  WSF200               JUNCTION      0.00  1308.17     0  02:14           0        8.16       0.008
  YS02001580           JUNCTION      0.00   128.49     0  02:06           0     0.00421      -2.206
  YS02001583           JUNCTION      0.00   172.26     0  02:06           0      0.0152      -5.405
  YS02001586           JUNCTION    640.47   640.50     0  02:15        1.36        1.37       0.097
  YS02001590           JUNCTION      0.00   317.92     0  02:14           0        1.14      -0.049
  YS02001593           JUNCTION      0.00   318.01     0  02:16           0        1.14       0.012
  YS02001596           JUNCTION      0.00   317.92     0  02:19           0        1.14      -0.002
  YS02001600           JUNCTION      0.00   317.98     0  02:17           0        1.14       0.014
  YS02001601           JUNCTION   1183.81  1501.46     0  02:14         1.9        3.04       0.025
  YS02001602           JUNCTION      0.00   517.83     0  02:05           0        2.02       0.023
  YS02001605           JUNCTION      0.00   517.69     0  02:05           0        1.94       0.032
  YS02001607           JUNCTION      0.00   518.13     0  02:05           0        1.94       0.100
  YS02001610           JUNCTION      0.00   592.16     0  02:15           0        2.04       0.115
  YS02001613           JUNCTION      0.00   522.17     0  02:05           0        1.72       0.091
  YS02001616           JUNCTION      0.00   526.08     0  02:05           0        1.72       0.024
  YS02001619           JUNCTION   1143.92  1143.92     0  02:15        2.17        3.78      -0.001
  YS02001622           JUNCTION      0.00   926.56     0  02:08           0        3.67       0.003
  YS02001625           JUNCTION      0.00  1199.45     0  02:15           0        3.75       0.311
  YS02001629           JUNCTION      0.00   937.80     0  02:06           0        3.21      -0.029
  YS02001633           JUNCTION    890.24  1397.47     0  02:08        1.39        4.47       0.078
  YS02001641           JUNCTION      0.00  1396.48     0  02:08           0        4.36       0.064
  YS02001644           JUNCTION    798.58  1826.61     0  02:09         1.2        5.56       0.061
  YS02001647           JUNCTION      0.00  1825.88     0  02:09           0        5.39       0.006
  YS02001649           JUNCTION      0.00  2124.10     0  02:09           0        6.48       0.005
  YS02001652           JUNCTION      0.00   898.74     0  02:13           0        1.09      -0.095
  YS02001655           JUNCTION      0.15   898.96     0  02:13     0.00443        1.09       0.067
  YS02001658           JUNCTION      0.00   899.64     0  02:13           0        1.08      -0.023
  YS02001661           JUNCTION      0.00   882.08     0  02:12           0        1.08       0.006
  YS02001664           JUNCTION    782.14   782.14     0  02:13        1.08        1.08      -0.007
  YS02001745           JUNCTION    508.18   508.18     0  02:13       0.663       0.664       0.203
  YS02001748           JUNCTION      0.04   596.71     0  02:11      0.0013       0.665      -0.325
  YS02001751           JUNCTION      0.01   569.31     0  02:12    0.000317       0.672       0.037
  YS02001754           JUNCTION      0.26   568.16     0  02:12     0.00749       0.691      -0.176
  YS02001757           JUNCTION      0.00  3477.83     0  02:12           0        9.44       0.033
  YS02001759           JUNCTION    705.38  1401.15     0  02:11       0.914        2.27      -0.003
  YS02001762           JUNCTION      0.00   821.42     0  02:16           0        1.35       0.004
  YS02001765           JUNCTION      0.00   820.43     0  02:16           0        1.35      -0.001
  YS02001767           JUNCTION      0.54   819.15     0  02:16      0.0154        1.35       0.006
  YS02001770           JUNCTION    982.70   982.70     0  02:14         1.4        1.45       0.013
  YS02001774           JUNCTION      0.00   320.48     0  02:10           0       0.131       0.889
  YS02001779           JUNCTION      0.01   327.19     0  02:10    0.000144      0.0828      -0.464
  YS02001783           JUNCTION      0.00  1165.14     0  02:12           0        3.46       0.006
  YS02001784           JUNCTION      1.06  1166.29     0  02:12      0.0305        3.49       0.015
  YS02001786           JUNCTION      0.06  1166.54     0  02:12     0.00162         3.5       0.018
  YS02001788           JUNCTION      0.07  1167.84     0  02:12     0.00204         3.5       0.008
  YS02001790           JUNCTION      0.15  1178.91     0  02:12     0.00446         3.5       0.025
  YS02001791           JUNCTION      0.00  1284.63     0  02:16           0         3.5      -0.023
  YS02001793           JUNCTION      0.00  1241.83     0  02:17           0         3.5       0.001
  YS02001882           JUNCTION      0.00    62.98     0  02:07           0      0.0125       4.555
  YS02001884           JUNCTION      0.00    78.76     0  02:07           0      0.0483       5.311
  YS02001887           JUNCTION    772.70   772.70     0  02:13       0.963       0.996       0.439
  YS02001890           JUNCTION      0.00   773.70     0  02:13           0       0.956       0.532
  YS02001895           JUNCTION      0.00   517.36     0  02:16           0       0.888       0.163
  YS02001898           JUNCTION      0.00   517.29     0  02:15           0       0.887       0.037
  YS02001901           JUNCTION      0.00   517.73     0  02:16           0       0.889       0.350
  YS02001904           JUNCTION      0.00   517.35     0  02:16           0       0.893       0.303
  YS02001907           JUNCTION      0.00  1836.36     0  02:13           0           3       0.598
  YS02001910           JUNCTION      0.00  1322.20     0  02:13           0        2.11       0.335
  YS02001915           JUNCTION    863.40  1321.31     0  02:13        1.33        2.15       0.073
  YS02001918           JUNCTION      0.00   465.90     0  02:13           0       0.853      -0.003
  YS02001920           JUNCTION      2.87   465.22     0  02:13      0.0827       0.836       0.110
  YS02001923           JUNCTION      0.04   455.78     0  02:13     0.00109       0.737      -0.082
  YS02001926           JUNCTION      0.05   586.51     0  02:09      0.0015       0.716      -0.032
  YS02001929           JUNCTION    413.12   413.12     0  02:14       0.701       0.703      -0.026
  YS02006553           JUNCTION      0.00   798.40     0  02:27           0        2.11       0.559
  YS02006556           JUNCTION      0.00   798.60     0  02:27           0        2.11       0.372
  YS02006558           JUNCTION   1007.29  1185.32     0  02:09        1.41        3.49       0.102
  YS02006561           JUNCTION      0.00  1186.12     0  02:09           0        3.46      -0.003
  YS02163301           JUNCTION      0.00   926.90     0  02:08           0        3.19       0.045
  YS02163601           JUNCTION      0.11  1397.77     0  02:08     0.00317        4.36       0.112
  YS02164001           JUNCTION      0.00  1397.57     0  02:08           0        4.36       0.052
  YSB1154              JUNCTION    405.35   405.35     0  02:14       0.579        0.58       0.248
  YSB1171              JUNCTION      0.00   974.84     0  02:14           0         1.1       0.575
  YSB1174              JUNCTION    363.58   363.58     0  02:13       0.441       0.441       0.287
  YSB6556              JUNCTION      0.00   405.35     0  02:13           0       0.581       0.196
  CC-1                 OUTFALL       0.00   683.00     0  01:52           0        3.62       0.000
  CC-2                 OUTFALL       0.00   683.00     0  00:20           0        6.21       0.000
  JK-1                 OUTFALL       0.00  1000.00     0  00:05           0        2.09       0.000
  JK-2                 OUTFALL       0.00  1000.00     0  01:40           0        1.92       0.000
  WSC                  OUTFALL       0.00  1507.89     0  02:17           0          14       0.000
  CC-storage           STORAGE       0.00  3477.74     0  02:12           0        11.7      -2.981
  JK-storage           STORAGE       0.00  1268.48     0  02:22           0        3.65     -28.545
  XR-storage           STORAGE     200.00   200.00     0  00:00        5.76        6.36       0.001
  
  
  **********************
  Node Surcharge Summary
  **********************
  
  Surcharging occurs when water rises above the top of the highest conduit.
  ---------------------------------------------------------------------
                                               Max. Height   Min. Depth
                                   Hours       Above Crown    Below Rim
  Node                 Type      Surcharged         Meters       Meters
  ---------------------------------------------------------------------
  HS02004478           JUNCTION        0.38          0.924        0.016
  HS02004479           JUNCTION        0.50          1.050        0.000
  HS02004480           JUNCTION        0.53          1.100        0.000
  HS02004770           JUNCTION        0.45          0.720        0.000
  HS02004777           JUNCTION        0.46          0.780        0.000
  HS02004785           JUNCTION        0.41          0.790        0.000
  HS02004788           JUNCTION        0.40          0.720        0.000
  HS02004792           JUNCTION        0.51          0.900        0.000
  HS02004799           JUNCTION        0.62          1.060        0.000
  HS02004802           JUNCTION        0.54          1.210        0.000
  HS02004807           JUNCTION        0.53          1.220        0.000
  HS02004817           JUNCTION        1.04          1.740        0.000
  HS02004824           JUNCTION        0.40          1.310        0.000
  HS02004830           JUNCTION        0.37          1.330        0.000
  HS02004837           JUNCTION        0.34          1.289        0.051
  HS02004842           JUNCTION        0.46          1.520        0.000
  HS02004848           JUNCTION        0.30          1.370        0.000
  HS02004852           JUNCTION        0.32          1.420        0.000
  HS02004856           JUNCTION        0.29          1.300        0.000
  HS02004862           JUNCTION        0.33          1.300        0.000
  HS02004870           JUNCTION        0.33          1.400        0.000
  HS02004876           JUNCTION        0.39          1.560        0.000
  HS02004881           JUNCTION        0.36          1.450        0.000
  HS02004901           JUNCTION        0.46          0.720        0.000
  WS02004401           JUNCTION        1.42          0.878        0.782
  WS02004402           JUNCTION        1.45          0.817        0.923
  WS02004403           JUNCTION        1.45          0.741        1.289
  WS02004404           JUNCTION        1.56          0.757        2.023
  WS02004405           JUNCTION        1.54          0.700        2.100
  WS02004406           JUNCTION        1.52          0.584        1.866
  WS02004409           JUNCTION        0.85          0.393        1.967
  WS02004410           JUNCTION        0.80          0.302        2.238
  WS02004411           JUNCTION        0.74          0.208        2.322
  WS02004412           JUNCTION        0.65          0.107        2.203
  WS02004413           JUNCTION        1.20          0.147        2.053
  WS02006109           JUNCTION        1.78          1.820        0.000
  WS02006110           JUNCTION        1.67          1.485        0.365
  WS02006111           JUNCTION        1.07          0.945        0.925
  WS02006112           JUNCTION        1.71          1.680        0.000
  WS02006113           JUNCTION        1.09          1.036        0.894
  WS02006115           JUNCTION        1.28          0.970        1.280
  WS02006116           JUNCTION        1.29          0.914        1.376
  WS02006228           JUNCTION        1.78          2.200        0.000
  WS02006229           JUNCTION        0.78          1.070        0.000
  WS02006230           JUNCTION        1.56          1.570        0.000
  WS02006231           JUNCTION        1.61          1.491        0.039
  WS02006232           JUNCTION        1.71          1.480        0.000
  WS02006234           JUNCTION        1.65          1.240        0.000
  WS02006235           JUNCTION        1.65          1.290        0.000
  WS02006238           JUNCTION        1.68          1.403        0.027
  WS02006239           JUNCTION        1.65          1.156        0.134
  WS02006240           JUNCTION        1.62          0.986        0.404
  WS02006242           JUNCTION        1.62          0.820        0.000
  WS02006243           JUNCTION        1.54          0.770        0.000
  WS02006245           JUNCTION        1.50          0.717        0.133
  WS02006247           JUNCTION        1.51          0.760        0.000
  WS02006248           JUNCTION        1.46          0.380        0.000
  WS02006249           JUNCTION        1.47          0.390        0.000
  WS02006251           JUNCTION        1.24          1.180        0.000
  WS02006252           JUNCTION        1.28          1.100        0.000
  WS02006253           JUNCTION        1.24          2.480        0.000
  WS02006256           JUNCTION        4.99          2.050        0.000
  WS02006280           JUNCTION        0.64          0.780        0.000
  WS02006284           JUNCTION        0.56          0.800        0.000
  WS02006287           JUNCTION        0.47          0.890        0.000
  YS02001580           JUNCTION        0.49          0.450        0.000
  YS02001583           JUNCTION        0.49          0.500        0.000
  YS02001586           JUNCTION        0.58          0.510        0.000
  YS02001590           JUNCTION        0.65          0.750        0.000
  YS02001593           JUNCTION        0.65          0.746        0.094
  YS02001596           JUNCTION        0.75          0.948        0.122
  YS02001600           JUNCTION        0.89          1.190        0.000
  YS02001601           JUNCTION        1.24          1.440        0.000
  YS02001602           JUNCTION        1.13          1.270        0.000
  YS02001605           JUNCTION        1.08          1.180        0.000
  YS02001607           JUNCTION        0.60          0.655        0.025
  YS02001610           JUNCTION        0.62          0.680        0.000
  YS02001613           JUNCTION        0.59          0.698        0.002
  YS02001616           JUNCTION        0.55          0.610        0.000
  YS02001619           JUNCTION        0.54          0.610        0.000
  YS02001622           JUNCTION        0.53          0.588        0.032
  YS02001625           JUNCTION        0.70          0.780        0.000
  YS02001629           JUNCTION        0.47          0.470        0.000
  YS02001633           JUNCTION        0.71          1.028        0.032
  YS02001641           JUNCTION        0.62          0.959        0.141
  YS02001644           JUNCTION        0.58          0.920        0.000
  YS02001647           JUNCTION        0.37          0.826        0.074
  YS02001649           JUNCTION        0.43          1.050        0.000
  YS02001652           JUNCTION        0.29          0.886        0.244
  YS02001655           JUNCTION        0.19          1.014        0.186
  YS02001658           JUNCTION        0.12          1.031        0.269
  YS02001661           JUNCTION        0.01          0.347        1.043
  YS02001748           JUNCTION        0.04          0.750        0.440
  YS02001751           JUNCTION        0.14          0.778        0.422
  YS02001754           JUNCTION        0.19          1.150        0.000
  YS02001757           JUNCTION        0.45          1.210        0.000
  YS02001759           JUNCTION        0.38          1.210        0.000
  YS02001762           JUNCTION        0.35          1.038        0.112
  YS02001765           JUNCTION        0.32          1.013        0.087
  YS02001767           JUNCTION        0.30          0.977        0.053
  YS02001770           JUNCTION        0.28          0.920        0.000
  YS02001774           JUNCTION        0.34          1.004        0.046
  YS02001779           JUNCTION        0.21          0.680        0.000
  YS02001783           JUNCTION        0.45          0.629        0.971
  YS02001784           JUNCTION        0.43          0.417        1.073
  YS02001786           JUNCTION        0.33          0.142        1.288
  YS02001882           JUNCTION        0.40          0.767        0.063
  YS02001884           JUNCTION        0.41          0.797        0.073
  YS02001887           JUNCTION        0.44          0.849        0.101
  YS02001890           JUNCTION        0.45          0.760        0.000
  YS02001895           JUNCTION        0.39          0.610        0.140
  YS02001898           JUNCTION        0.38          0.612        0.128
  YS02001901           JUNCTION        0.43          0.711        0.159
  YS02001904           JUNCTION        0.42          0.644        0.206
  YS02001907           JUNCTION        0.64          0.950        0.000
  YS02001910           JUNCTION        0.47          0.998        0.102
  YS02001915           JUNCTION        0.40          0.937        0.063
  YS02001918           JUNCTION        0.32          0.810        0.000
  YS02001920           JUNCTION        0.33          1.140        0.000
  YS02001923           JUNCTION        0.04          0.820        0.000
  YS02001926           JUNCTION        0.08          0.900        0.000
  YS02001929           JUNCTION        0.01          0.780        0.000
  YS02006553           JUNCTION        0.65          1.017        0.173
  YS02006556           JUNCTION        0.56          1.004        0.346
  YS02006558           JUNCTION        0.55          0.995        0.405
  YS02006561           JUNCTION        0.29          0.325        0.825
  YS02163301           JUNCTION        0.69          0.942        0.088
  YS02163601           JUNCTION        0.74          1.046        0.034
  YS02164001           JUNCTION        0.64          0.964        0.136
  YSB1154              JUNCTION        0.72          1.331        0.069
  YSB1171              JUNCTION        0.72          1.100        0.000
  YSB1174              JUNCTION        0.65          1.219        0.031
  YSB6556              JUNCTION        0.60          1.100        0.000
  
  
  *********************
  Node Flooding Summary
  *********************
  
  Flooding refers to all water that overflows a node, whether it ponds or not.
  --------------------------------------------------------------------------
                                                             Total   Maximum
                                 Maximum   Time of Max       Flood    Ponded
                        Hours       Rate    Occurrence      Volume     Depth
  Node                 Flooded       LPS   days hr:min    10^6 ltr    Meters
  --------------------------------------------------------------------------
  HS02004479              0.01     21.31      0  02:07       0.000     0.000
  HS02004480              0.01     65.31      0  02:07       0.000     0.000
  HS02004770              0.30   1000.08      0  02:14       0.536     0.000
  HS02004777              0.01     25.14      0  02:06       0.000     0.000
  HS02004785              0.01     24.63      0  02:06       0.000     0.000
  HS02004788              0.01    298.41      0  02:06       0.002     0.000
  HS02004792              0.30   1474.41      0  02:14       0.847     0.000
  HS02004799              0.15    233.79      0  02:12       0.072     0.000
  HS02004802              0.01     13.10      0  02:07       0.000     0.000
  HS02004807              0.06    142.78      0  02:14       0.018     0.000
  HS02004817              0.01     11.06      0  02:09       0.000     0.000
  HS02004824              0.01     14.58      0  02:09       0.000     0.000
  HS02004830              0.01     10.41      0  02:09       0.000     0.000
  HS02004842              0.01    117.26      0  02:09       0.001     0.000
  HS02004848              0.01    119.44      0  02:09       0.000     0.000
  HS02004852              0.01     34.92      0  02:09       0.000     0.000
  HS02004856              0.01    372.07      0  02:09       0.002     0.000
  HS02004862              0.01    391.65      0  02:09       0.001     0.000
  HS02004870              0.01    298.45      0  02:09       0.000     0.000
  HS02004876              0.01     55.96      0  02:09       0.000     0.000
  HS02004881              0.01    164.97      0  02:09       0.000     0.000
  HS02004901              0.35    614.30      0  02:14       0.519     0.000
  WS02006109              0.33    282.53      0  02:13       0.196     0.000
  WS02006112              0.01   1153.65      0  00:00       0.035     0.000
  WS02006228              0.01     10.37      0  02:07       0.000     0.000
  WS02006229              0.01     22.06      0  02:07       0.000     0.000
  WS02006230              0.57    574.21      0  02:12       0.757     0.000
  WS02006232              0.15      0.62      0  02:32       0.000     0.000
  WS02006234              0.64    128.80      0  02:19       0.185     0.000
  WS02006235              0.01      8.42      0  02:45       0.000     0.000
  WS02006242              0.75    137.53      0  02:15       0.318     0.000
  WS02006243              0.01     65.69      0  01:50       0.000     0.000
  WS02006247              0.01    112.55      0  01:50       0.000     0.000
  WS02006248              1.07    339.86      0  02:03       1.036     0.000
  WS02006249              1.24   1296.66      0  02:13       2.891     0.000
  WS02006251              0.01     43.75      0  02:09       0.000     0.000
  WS02006252              0.24    652.37      0  02:13       0.283     0.000
  WS02006253              0.01    114.35      0  02:09       0.000     0.000
  WS02006256              0.76    296.42      0  02:35       0.455     0.000
  WS02006280              0.01     15.80      0  02:07       0.000     0.000
  WS02006284              0.01      9.30      0  02:07       0.000     0.000
  WS02006287              0.01     37.13      0  02:07       0.000     0.000
  YS02001580              0.01    103.50      0  02:06       0.000     0.000
  YS02001583              0.01     78.77      0  02:06       0.000     0.000
  YS02001586              0.38    323.11      0  02:15       0.222     0.000
  YS02001590              0.01      6.78      0  02:06       0.000     0.000
  YS02001600              0.01      1.78      0  02:06       0.000     0.000
  YS02001601              0.51   1103.42      0  02:14       1.023     0.000
  YS02001602              0.39     61.98      0  02:19       0.078     0.000
  YS02001605              0.01      4.11      0  02:06       0.000     0.000
  YS02001610              0.34    591.89      0  02:15       0.429     0.000
  YS02001616              0.01     20.92      0  02:06       0.000     0.000
  YS02001619              0.01     15.09      0  02:06       0.000     0.000
  YS02001625              0.28   1199.33      0  02:15       0.642     0.000
  YS02001629              0.08    228.44      0  02:13       0.040     0.000
  YS02001644              0.11    721.45      0  02:12       0.155     0.000
  YS02001649              0.01      8.13      0  02:11       0.000     0.000
  YS02001754              0.01     91.89      0  02:11       0.000     0.000
  YS02001757              0.01     54.72      0  02:11       0.000     0.000
  YS02001759              0.01      6.16      0  02:11       0.000     0.000
  YS02001770              0.01     14.31      0  02:11       0.000     0.000
  YS02001779              0.09    301.47      0  02:13       0.063     0.000
  YS02001890              0.13    260.37      0  02:13       0.062     0.000
  YS02001907              0.27   1684.85      0  02:13       0.885     0.000
  YS02001918              0.01    190.97      0  02:10       0.002     0.000
  YS02001920              0.01     42.48      0  02:09       0.000     0.000
  YS02001923              0.01    201.83      0  02:09       0.001     0.000
  YS02001926              0.01    307.55      0  02:09       0.002     0.000
  YS02001929              0.01    101.68      0  02:09       0.000     0.000
  YSB1171                 0.22    974.82      0  02:14       0.439     0.000
  YSB6556                 0.01      8.09      0  02:07       0.000     0.000
  
  
  **********************
  Storage Volume Summary
  **********************
  
  ------------------------------------------------------------------------------------------------
                         Average    Avg   Evap  Exfil     Maximum    Max    Time of Max    Maximum
                          Volume   Pcnt   Pcnt   Pcnt      Volume   Pcnt     Occurrence    Outflow
  Storage Unit           1000 m   Full   Loss   Loss     1000 m   Full    days hr:min        LPS
  ------------------------------------------------------------------------------------------------
  CC-storage               1.830   28.5    0.0    0.0       4.639   72.4       0  03:10    1566.00
  JK-storage               0.007    2.2    0.0    0.0       0.151   51.7       0  00:05    2300.00
  XR-storage               0.943   65.5    0.0    0.0       1.111   77.1       0  08:00     190.00
  
  
  ***********************
  Outfall Loading Summary
  ***********************
  
  -----------------------------------------------------------
                         Flow       Avg       Max       Total
                         Freq      Flow      Flow      Volume
  Outfall Node           Pcnt       LPS       LPS    10^6 ltr
  -----------------------------------------------------------
  CC-1                  45.29    416.45    683.00       3.624
  CC-2                  57.06    446.22    683.00       6.209
  JK-1                  65.06    157.72   1000.00       2.085
  JK-2                  27.39    276.80   1000.00       1.917
  WSC                   99.99    582.42   1507.89      13.971
  -----------------------------------------------------------
  System                58.96   1879.61   4082.50      27.806
  
  
  ********************
  Link Flow Summary
  ********************
  
  -----------------------------------------------------------------------------
                                 Maximum  Time of Max   Maximum    Max/    Max/
                                  |Flow|   Occurrence   |Veloc|    Full    Full
  Link                 Type          LPS  days hr:min     m/sec    Flow   Depth
  -----------------------------------------------------------------------------
  1                    CONDUIT   1507.89     0  02:17      3.70    0.53    0.51
  HS02004478WS02006287 CONDUIT   2305.57     0  02:12      2.58    0.65    1.00
  HS02004479HS02004480 CONDUIT    472.22     0  02:09      0.67    0.46    1.00
  HS02004480HS02004478 CONDUIT   2110.44     0  02:07      3.01    8.89    1.00
  HS02004770HS02004777 CONDUIT    760.73     0  02:06      1.09    1.39    1.00
  HS02004777HS02004785 CONDUIT    765.16     0  02:06      1.15    0.94    1.00
  HS02004785HS02004788 CONDUIT    658.77     0  02:06      1.35    4.97    1.00
  HS02004788HS02004792 CONDUIT    818.62     0  02:27      1.44    0.54    1.00
  HS02004792HS02004799 CONDUIT   1577.75     0  02:07      2.25    0.97    1.00
  HS02004799HS02004480 CONDUIT   1747.02     0  02:07      2.50    2.21    1.00
  HS02004802HS02004478 CONDUIT   1232.59     0  02:15      1.76    1.09    1.00
  HS02004807HS02004802 CONDUIT   1232.41     0  02:15      1.76    2.35    1.00
  HS02004817HS02004807 CONDUIT    931.57     0  02:14      1.33    0.55    1.00
  HS02004817HS02004824 CONDUIT    930.61     0  02:14      1.33    0.42    1.00
  HS02004824HS02004830 CONDUIT    655.90     0  02:07      0.94    0.86    1.00
  HS02004830HS02004837 CONDUIT    669.84     0  02:07      1.06    0.67    1.00
  HS02004837HS02004842 CONDUIT    856.31     0  02:07      1.22    0.51    1.00
  HS02004842HS02004848 CONDUIT    855.55     0  02:07      1.37    0.50    1.00
  HS02004848HS02004852 CONDUIT   1083.31     0  02:09      1.63    1.22    1.00
  HS02004852HS02004856 CONDUIT   1104.74     0  02:09      1.58    1.26    1.00
  HS02004856HS02004862 CONDUIT   1104.03     0  02:09      1.72    1.10    1.00
  HS02004862HS02004870 CONDUIT   1216.49     0  02:09      1.93    1.31    1.00
  HS02004870HS02004876 CONDUIT   1205.51     0  02:13      1.79    0.80    1.00
  HS02004876HS02004881 CONDUIT   1439.46     0  02:13      2.47   15.31    1.00
  HS02004881HS02006253 CONDUIT   1573.39     0  02:13      2.55    0.31    1.00
  HS02004901HS02004770 CONDUIT    265.77     0  02:24      0.38    1.00    1.00
  WS02001211WS02001212 CONDUIT    215.12     0  02:50      0.54    0.16    0.69
  WS02001212WS02001213 CONDUIT    220.28     0  02:49      1.03    0.34    0.56
  WS02001213WS02003059 CONDUIT    225.69     0  02:49      0.47    0.37    0.89
  WS02003059WS02003060 CONDUIT    233.75     0  02:49      0.66    0.15    0.81
  WS02003060WS02003069 CONDUIT   1504.58     0  02:15      2.08    0.59    0.61
  WS02003066WSF200     CONDUIT   1308.17     0  02:14      3.25    0.22    0.39
  WS02003067WS02003066 CONDUIT   1308.12     0  02:14      2.01    0.42    0.56
  WS02003069WS02003072 CONDUIT   1504.66     0  02:15      1.89    0.72    0.66
  WS02003072WS02003073 CONDUIT   1505.09     0  02:16      2.05    3.25    0.62
  WS02004138WS02004139 CONDUIT    190.00     0  00:31      2.17    0.04    0.42
  WS02004139WS02001211 CONDUIT    199.34     0  02:50      0.55    0.25    0.61
  WS02004401WS02004402 CONDUIT   1307.65     0  02:13      2.07    1.57    1.00
  WS02004402WS02004403 CONDUIT   1308.52     0  02:13      1.84    1.88    1.00
  WS02004403WS02004404 CONDUIT   1309.46     0  02:13      1.68    0.95    1.00
  WS02004404WS02004405 CONDUIT   1310.55     0  02:13      1.86   12.84    1.00
  WS02004405WS02004406 CONDUIT   1310.87     0  02:13      1.80    2.59    1.00
  WS02004406WS02004407 CONDUIT   1311.19     0  02:13      1.72    0.59    0.97
  WS02004407WS02004409 CONDUIT   1307.33     0  02:14      1.78    0.46    0.97
  WS02004409WS02004410 CONDUIT   1307.52     0  02:14      1.66    1.69    1.00
  WS02004410WS02004411 CONDUIT   1307.72     0  02:14      1.67    1.79    1.00
  WS02004411WS02004412 CONDUIT   1307.70     0  02:14      1.67    1.86    1.00
  WS02004412WS02004413 CONDUIT   1307.56     0  02:13      1.66    0.88    1.00
  WS02004413WS02003067 CONDUIT   1307.71     0  02:14      2.02    0.56    0.77
  WS02006109WS02006110 CONDUIT   1306.78     0  00:00      3.15    2.51    1.00
  WS02006110WS02006113 CONDUIT   1121.16     0  02:26      2.23    1.02    1.00
  WS02006111WS02006112 CONDUIT   2307.30     0  00:00      9.18    1.10    1.00
  WS02006112WS02006115 CONDUIT   2152.75     0  00:00      2.85    1.27    1.00
  WS02006113WS02006111 CONDUIT   1176.04     0  00:00      2.70    1.41    1.00
  WS02006115WS02006116 CONDUIT   1308.12     0  02:13      1.81    1.68    1.00
  WS02006116WS02004401 CONDUIT   1307.29     0  02:13      2.21    1.80    1.00
  WS02006228WS02006109 CONDUIT   1288.69     0  02:12      2.56    5.63    1.00
  WS02006229WS02006228 CONDUIT   1288.65     0  02:12      2.56    4.27    1.00
  WS02006230WS02006229 CONDUIT   1016.83     0  02:12      2.64   22.63    1.00
  WS02006231WS02006230 CONDUIT    453.46     0  02:12      1.29    6.88    1.00
  WS02006232WS02006231 CONDUIT    453.41     0  02:11      1.18    0.95    1.00
  WS02006234WS02006232 CONDUIT    453.41     0  02:12      1.18    0.92    1.00
  WS02006235WS02006234 CONDUIT    413.50     0  02:25      1.07    4.36    1.00
  WS02006238WS02006235 CONDUIT    415.39     0  02:19      1.23    0.93    1.00
  WS02006239WS02006238 CONDUIT    415.01     0  02:15      1.08    1.33    1.00
  WS02006240WS02006239 CONDUIT    414.69     0  02:15      1.09    1.30    1.00
  WS02006242WS02006240 CONDUIT    414.97     0  02:15      1.08    1.65    1.00
  WS02006243WS02006242 CONDUIT    308.29     0  03:07      1.14    0.66    1.00
  WS02006245WS02006243 CONDUIT    308.29     0  03:07      1.22    0.91    1.00
  WS02006247WS02006245 CONDUIT    308.29     0  03:07      1.17    2.44    1.00
  WS02006248WS02006247 CONDUIT    308.29     0  03:07      1.17    0.67    1.00
  WS02006249WS02006248 CONDUIT    308.28     0  03:07      1.15    1.69    1.00
  WS02006251WS02006249 CONDUIT   1357.66     0  02:13      3.53    3.91    1.00
  WS02006252WS02006251 CONDUIT   1298.45     0  00:05     20.66    4.77    1.00
  WS02006253WS02006251 CONDUIT   1609.29     0  02:13      4.18    4.83    1.00
  WS02006256WS02006235 CONDUIT    241.78     0  03:30      3.42    2.56    1.00
  WS02006280WS02006229 CONDUIT   2306.06     0  02:12      4.10    0.49    1.00
  WS02006284WS02006280 CONDUIT   2304.08     0  02:12      2.97    0.96    1.00
  WS02006287WS02006284 CONDUIT   2304.64     0  02:12      2.93    1.07    1.00
  WSF200WS02003060     CONDUIT   1308.51     0  02:14      2.30    0.29    0.50
  YS02001580YS02001583 CONDUIT    128.49     0  02:06      0.69    0.50    1.00
  YS02001583YS02001586 CONDUIT    162.36     0  02:06      0.69    0.25    1.00
  YS02001586YS02001590 CONDUIT    317.92     0  02:14      1.25    0.56    1.00
  YS02001590YS02001593 CONDUIT    318.01     0  02:16      1.12    2.00    1.00
  YS02001593YS02001596 CONDUIT    317.92     0  02:19      1.75    0.50    1.00
  YS02001596YS02001600 CONDUIT    317.98     0  02:17      1.23    0.62    1.00
  YS02001600YS02001601 CONDUIT    317.87     0  02:16      1.12    0.55    1.00
  YS02001601YS02001602 CONDUIT    517.83     0  02:05      1.83    1.87    1.00
  YS02001602YS02001605 CONDUIT    517.69     0  02:05      1.83   10.96    1.00
  YS02001605YS02001607 CONDUIT    518.13     0  02:05      1.83    2.84    1.00
  YS02001607YS02001610 CONDUIT    519.59     0  02:05      0.66    0.49    1.00
  YS02001610YS02001613 CONDUIT    522.17     0  02:05      0.66    0.60    1.00
  YS02001613YS02001616 CONDUIT    526.08     0  02:05      0.68    0.45    1.00
  YS02001616YS02001619 CONDUIT    505.87     0  02:06      0.67    0.88    1.00
  YS02001619YS02001622 CONDUIT    926.56     0  02:08      1.19    1.37    1.00
  YS02001622YS02001625 CONDUIT    936.84     0  02:06      1.19    0.50    1.00
  YS02001625YS02001629 CONDUIT    937.80     0  02:06      1.20    0.45    1.00
  YS02001629YS02163301 CONDUIT    926.90     0  02:08      1.18    1.14    1.00
  YS02001633YS02163601 CONDUIT   1397.66     0  02:08      1.78    1.47    1.00
  YS02001641YS02001644 CONDUIT   1396.73     0  02:08      1.78    4.52    1.00
  YS02001644YS02001647 CONDUIT   1825.88     0  02:09      2.33    1.07    1.00
  YS02001647YS02001649 CONDUIT   1847.17     0  02:09      2.35    0.98    1.00
  YS02001649YS02001757 CONDUIT   2129.46     0  02:09      2.72    1.29    1.00
  YS02001652YS02001649 CONDUIT    899.88     0  02:13      1.15    0.45    1.00
  YS02001655YS02001652 CONDUIT    898.74     0  02:13      1.27    0.44    1.00
  YS02001658YS02001655 CONDUIT    898.81     0  02:13      1.89    0.38    1.00
  YS02001661YS02001658 CONDUIT    899.64     0  02:13      2.35    0.35    1.00
  YS02001664YS02001661 CONDUIT    882.08     0  02:12      2.39    0.28    0.85
  YS02001745YS02001748 CONDUIT    596.66     0  02:11      2.25    0.23    0.97
  YS02001748YS02001751 CONDUIT    569.30     0  02:12      1.75    0.29    1.00
  YS02001751YS02001754 CONDUIT    567.90     0  02:12      1.36    0.27    1.00
  YS02001754YS02001757 CONDUIT    569.80     0  02:12      0.73    0.23    1.00
  YS02001757CaochengTiaoxuchi CONDUIT   3477.74     0  02:12      6.37    1.51    1.00
  YS02001759YS02001757 CONDUIT   1401.17     0  02:11      1.78    1.00    1.00
  YS02001762YS02001759 CONDUIT    820.50     0  02:16      1.04    0.95    1.00
  YS02001765YS02001762 CONDUIT    821.42     0  02:16      1.05    0.77    1.00
  YS02001767YS02001765 CONDUIT    820.43     0  02:16      1.04    1.03    1.00
  YS02001770YS02001767 CONDUIT    818.61     0  02:16      1.04    3.24    1.00
  YS02001774YS02001770 CONDUIT    320.48     0  02:10      0.41    0.20    1.00
  YS02001779YS02001774 CONDUIT    327.18     0  02:10      0.42    0.16    1.00
  YS02001783YS02001784 CONDUIT   1165.23     0  02:12      2.32    1.61    1.00
  YS02001784YS02001785 CONDUIT   1166.48     0  02:12      2.32    2.71    1.00
  YS02001786YS02001788 CONDUIT   1167.77     0  02:12      2.49    2.25    0.89
  YS02001788YS02001790 CONDUIT   1178.76     0  02:12      2.72    0.87    0.84
  YS02001790YS02001791 CONDUIT   1284.63     0  02:16      3.42    1.40    0.70
  YS02001791YS02001793 CONDUIT   1241.83     0  02:17      6.78    0.53    0.42
  YS02001793JiankangQianchi CONDUIT   1268.48     0  02:22     23.72    0.10    0.55
  YS02001882YS02001884 CONDUIT     62.98     0  02:07      0.10    0.07    1.00
  YS02001884YS02001887 CONDUIT     78.76     0  02:07      0.10    0.10    1.00
  YS02001887YS02001890 CONDUIT    773.70     0  02:13      0.99    1.32    1.00
  YS02001890YS02001895 CONDUIT    517.36     0  02:16      0.66    0.24    1.00
  YS02001895YS02001898 CONDUIT    517.29     0  02:15      0.66    0.90    1.00
  YS02001898YS02001901 CONDUIT    517.73     0  02:16      0.66    0.33    1.00
  YS02001901YS02001904 CONDUIT    517.35     0  02:16      0.66    0.80    1.00
  YS02001904YS02001907 CONDUIT    517.95     0  02:16      0.66    0.18    1.00
  YS02001907YS02006553 CONDUIT    798.40     0  02:27      0.89    0.94    1.00
  YS02001910YS02001907 CONDUIT   1322.01     0  02:13      1.68    0.75    1.00
  YS02001915YS02001910 CONDUIT   1322.20     0  02:13      1.68    0.66    1.00
  YS02001918YS02001915 CONDUIT    466.55     0  02:13      0.59    0.26    1.00
  YS02001920YS02001918 CONDUIT    465.90     0  02:13      0.67    0.45    1.00
  YS02001923YS02001920 CONDUIT    462.35     0  02:13      0.69    0.21    1.00
  YS02001926YS02001923 CONDUIT    455.74     0  02:13      0.96    0.65    1.00
  YS02001929YS02001926 CONDUIT    452.12     0  02:13      1.13    0.21    1.00
  YS02006553YS02006556 CONDUIT    798.60     0  02:27      1.02    0.68    1.00
  YS02006556YS02006558 CONDUIT    801.80     0  02:27      1.02    0.63    1.00
  YS02006558YS02006561 CONDUIT   1186.12     0  02:09      4.20    2.62    1.00
  YS02006561YS02001783 CONDUIT   1165.14     0  02:12      2.32    0.60    1.00
  YS02163301YS02001633 CONDUIT    926.99     0  02:08      1.18    0.87    1.00
  YS02163601YS02164001 CONDUIT   1397.57     0  02:08      1.78    1.24    1.00
  YS02164001YS02001641 CONDUIT   1396.48     0  02:08      1.78    1.91    1.00
  YSB1154YSB6556       CONDUIT    405.35     0  02:13      1.05    0.73    1.00
  YSB1171HS02004479    CONDUIT    471.71     0  02:09      0.94    0.31    1.00
  YSB1174YSB1171       CONDUIT    363.96     0  02:13      0.95    0.56    1.00
  YSB6556YSB1171       CONDUIT    405.46     0  02:14      1.05    0.42    1.00
  CC-R1                PUMP       683.00     0  01:52              1.00
  CC-R2                PUMP       683.00     0  00:20              1.00
  CC-S1                PUMP       200.00     0  00:05              1.00
  CC-S2                PUMP       200.00     0  02:00              1.00
  JK-R1                PUMP      1000.00     0  00:05              1.00
  JK-R2                PUMP      1000.00     0  01:40              1.00
  JK-S                 PUMP       300.00     0  01:40              1.00
  XR-1                 PUMP        95.00     0  00:10              1.00
  XR-2                 PUMP        95.00     0  00:29              1.00
  XR-3                 PUMP         0.00     0  00:00              0.00
  XR-4                 PUMP         0.00     0  00:00              0.00
  
  
  ***************************
  Flow Classification Summary
  ***************************
  
  -------------------------------------------------------------------------------------
                      Adjusted    ---------- Fraction of Time in Flow Class ---------- 
                       /Actual         Up    Down  Sub   Sup   Up    Down  Norm  Inlet 
  Conduit               Length    Dry  Dry   Dry   Crit  Crit  Crit  Crit  Ltd   Ctrl  
  -------------------------------------------------------------------------------------
  1                       1.00   0.00  0.00  0.00  0.00  1.00  0.00  0.00  0.40  0.00
  HS02004478WS02006287    1.00   0.17  0.00  0.00  0.67  0.17  0.00  0.00  0.61  0.00
  HS02004479HS02004480    1.00   0.04  0.00  0.00  0.96  0.00  0.00  0.00  0.12  0.00
  HS02004480HS02004478    1.00   0.13  0.00  0.00  0.61  0.00  0.00  0.26  0.00  0.00
  HS02004770HS02004777    1.00   0.00  0.13  0.00  0.87  0.00  0.00  0.00  0.03  0.00
  HS02004777HS02004785    1.00   0.00  0.00  0.00  1.00  0.00  0.00  0.00  0.13  0.00
  HS02004785HS02004788    1.00   0.00  0.00  0.00  1.00  0.00  0.00  0.00  0.00  0.00
  HS02004788HS02004792    1.00   0.00  0.00  0.00  0.99  0.01  0.00  0.00  0.92  0.00
  HS02004792HS02004799    1.00   0.00  0.00  0.00  0.99  0.01  0.00  0.00  0.88  0.00
  HS02004799HS02004480    1.00   0.00  0.03  0.00  0.84  0.00  0.13  0.00  0.00  0.00
  HS02004802HS02004478    1.00   0.13  0.01  0.00  0.86  0.00  0.00  0.00  0.03  0.00
  HS02004807HS02004802    1.00   0.13  0.00  0.00  0.85  0.00  0.00  0.02  0.00  0.00
  HS02004817HS02004807    1.00   0.00  0.13  0.00  0.87  0.00  0.00  0.00  0.01  0.00
  HS02004817HS02004824    1.00   0.00  0.00  0.00  1.00  0.00  0.00  0.00  0.84  0.00
  HS02004824HS02004830    1.00   0.00  0.00  0.00  1.00  0.00  0.00  0.00  0.01  0.00
  HS02004830HS02004837    1.00   0.00  0.00  0.00  1.00  0.00  0.00  0.00  0.90  0.00
  HS02004837HS02004842    1.00   0.00  0.00  0.00  0.99  0.01  0.00  0.00  0.11  0.00
  HS02004842HS02004848    1.00   0.00  0.13  0.00  0.87  0.00  0.00  0.00  0.57  0.00
  HS02004848HS02004852    1.00   0.13  0.00  0.00  0.87  0.00  0.00  0.00  0.70  0.00
  HS02004852HS02004856    1.00   0.13  0.01  0.00  0.86  0.00  0.00  0.00  0.69  0.00
  HS02004856HS02004862    1.00   0.00  0.18  0.00  0.82  0.00  0.00  0.00  0.74  0.00
  HS02004862HS02004870    1.00   0.00  0.00  0.00  1.00  0.00  0.00  0.00  0.04  0.00
  HS02004870HS02004876    1.00   0.00  0.00  0.00  1.00  0.00  0.00  0.00  0.87  0.00
  HS02004876HS02004881    1.00   0.01  0.00  0.00  0.85  0.14  0.00  0.00  0.00  0.00
  HS02004881HS02006253    1.00   0.02  0.03  0.00  0.35  0.01  0.00  0.59  0.30  0.00
  HS02004901HS02004770    1.00   0.13  0.00  0.00  0.87  0.00  0.00  0.00  0.00  0.00
  WS02001211WS02001212    1.00   0.00  0.02  0.00  0.98  0.00  0.00  0.00  0.00  0.00
  WS02001212WS02001213    1.00   0.02  0.00  0.00  0.33  0.00  0.64  0.00  0.00  0.00
  WS02001213WS02003059    1.00   0.00  0.01  0.00  0.99  0.00  0.00  0.00  0.00  0.00
  WS02003059WS02003060    1.00   0.00  0.00  0.00  1.00  0.00  0.00  0.00  0.03  0.00
  WS02003060WS02003069    1.00   0.00  0.00  0.00  0.97  0.03  0.00  0.00  0.49  0.00
  WS02003066WSF200        1.00   0.06  0.00  0.00  0.00  0.94  0.00  0.00  0.72  0.00
  WS02003067WS02003066    1.00   0.05  0.01  0.00  0.94  0.00  0.00  0.00  0.00  0.00
  WS02003069WS02003072    1.00   0.00  0.00  0.00  0.99  0.01  0.00  0.00  0.57  0.00
  WS02003072WS02003073    1.00   0.00  0.00  0.00  0.00  0.00  0.00  1.00  0.00  0.00
  WS02004138WS02004139    1.00   0.02  0.00  0.00  0.97  0.01  0.00  0.00  0.98  0.00
  WS02004139WS02001211    1.00   0.00  0.01  0.00  0.99  0.00  0.00  0.00  0.00  0.00
  WS02004401WS02004402    1.00   0.00  0.00  0.00  1.00  0.00  0.00  0.00  0.00  0.00
  WS02004402WS02004403    1.00   0.00  0.00  0.00  1.00  0.00  0.00  0.00  0.00  0.00
  WS02004403WS02004404    1.00   0.00  0.00  0.00  1.00  0.00  0.00  0.00  0.00  0.00
  WS02004404WS02004405    1.00   0.00  0.00  0.00  1.00  0.00  0.00  0.00  0.00  0.00
  WS02004405WS02004406    1.00   0.00  0.00  0.00  1.00  0.00  0.00  0.00  0.00  0.00
  WS02004406WS02004407    1.00   0.00  0.01  0.00  0.99  0.00  0.00  0.00  0.01  0.00
  WS02004407WS02004409    1.00   0.01  0.00  0.00  0.98  0.01  0.00  0.00  0.88  0.00
  WS02004409WS02004410    1.00   0.01  0.00  0.00  0.99  0.00  0.00  0.00  0.00  0.00
  WS02004410WS02004411    1.00   0.01  0.00  0.00  0.99  0.00  0.00  0.00  0.01  0.00
  WS02004411WS02004412    1.00   0.01  0.00  0.00  0.99  0.00  0.00  0.00  0.00  0.00
  WS02004412WS02004413    1.00   0.01  0.00  0.00  0.99  0.00  0.00  0.00  0.02  0.00
  WS02004413WS02003067    1.00   0.01  0.04  0.00  0.00  0.00  0.95  0.00  0.00  0.00
  WS02006109WS02006110    1.00   0.00  0.00  0.00  1.00  0.00  0.00  0.00  0.00  0.00
  WS02006110WS02006113    1.00   0.00  0.00  0.00  1.00  0.00  0.00  0.00  0.00  0.00
  WS02006111WS02006112    1.00   0.00  0.00  0.00  1.00  0.00  0.00  0.00  0.81  0.00
  WS02006112WS02006115    1.00   0.00  0.00  0.00  1.00  0.00  0.00  0.00  0.00  0.00
  WS02006113WS02006111    1.00   0.00  0.00  0.00  0.17  0.83  0.00  0.00  0.10  0.00
  WS02006115WS02006116    1.00   0.00  0.00  0.00  1.00  0.00  0.00  0.00  0.00  0.00
  WS02006116WS02004401    1.00   0.00  0.00  0.00  1.00  0.00  0.00  0.00  0.00  0.00
  WS02006228WS02006109    1.00   0.00  0.00  0.00  1.00  0.00  0.00  0.00  0.00  0.00
  WS02006229WS02006228    1.00   0.00  0.00  0.00  1.00  0.00  0.00  0.00  0.00  0.00
  WS02006230WS02006229    1.00   0.00  0.00  0.00  1.00  0.00  0.00  0.00  0.00  0.00
  WS02006231WS02006230    1.00   0.00  0.00  0.00  0.27  0.00  0.72  0.00  0.00  0.00
  WS02006232WS02006231    1.00   0.00  0.00  0.00  0.99  0.00  0.00  0.00  0.01  0.00
  WS02006234WS02006232    1.00   0.00  0.01  0.00  0.99  0.00  0.00  0.00  0.26  0.00
  WS02006235WS02006234    1.00   0.02  0.00  0.00  0.63  0.00  0.35  0.00  0.00  0.00
  WS02006238WS02006235    1.00   0.02  0.00  0.00  0.98  0.00  0.00  0.00  0.00  0.00
  WS02006239WS02006238    1.00   0.02  0.00  0.00  0.98  0.00  0.00  0.00  0.31  0.00
  WS02006240WS02006239    1.00   0.02  0.00  0.00  0.55  0.00  0.00  0.44  0.01  0.00
  WS02006242WS02006240    1.00   0.01  0.00  0.00  0.98  0.00  0.01  0.00  0.00  0.00
  WS02006243WS02006242    1.00   0.01  0.00  0.00  0.98  0.00  0.00  0.01  0.54  0.00
  WS02006245WS02006243    1.00   0.01  0.00  0.00  0.89  0.00  0.00  0.10  0.01  0.00
  WS02006247WS02006245    1.00   0.01  0.00  0.00  0.98  0.00  0.00  0.01  0.00  0.00
  WS02006248WS02006247    1.00   0.01  0.00  0.00  0.99  0.00  0.00  0.00  0.51  0.00
  WS02006249WS02006248    1.00   0.00  0.01  0.00  0.45  0.00  0.54  0.00  0.00  0.00
  WS02006251WS02006249    1.00   0.00  0.00  0.00  1.00  0.00  0.00  0.00  0.53  0.00
  WS02006252WS02006251    1.00   0.01  0.24  0.00  0.16  0.00  0.59  0.00  0.00  0.00
  WS02006253WS02006251    1.00   0.01  0.00  0.00  0.97  0.00  0.02  0.00  0.00  0.00
  WS02006256WS02006235    1.00   0.02  0.00  0.00  0.98  0.00  0.00  0.00  0.00  0.00
  WS02006280WS02006229    1.00   0.14  0.00  0.00  0.13  0.02  0.00  0.71  0.00  0.00
  WS02006284WS02006280    1.00   0.14  0.00  0.00  0.09  0.01  0.00  0.76  0.00  0.00
  WS02006287WS02006284    1.00   0.10  0.06  0.00  0.56  0.27  0.00  0.00  0.66  0.00
  WSF200WS02003060        1.00   0.00  0.06  0.00  0.71  0.23  0.00  0.00  0.61  0.00
  YS02001580YS02001583    1.00   0.26  0.57  0.00  0.17  0.00  0.00  0.00  0.66  0.00
  YS02001583YS02001586    1.00   0.42  0.35  0.00  0.23  0.00  0.00  0.00  0.66  0.00
  YS02001586YS02001590    1.00   0.13  0.00  0.00  0.42  0.04  0.00  0.41  0.38  0.00
  YS02001590YS02001593    1.00   0.13  0.01  0.00  0.09  0.00  0.77  0.00  0.00  0.00
  YS02001593YS02001596    1.00   0.14  0.00  0.00  0.11  0.01  0.00  0.74  0.02  0.00
  YS02001596YS02001600    1.00   0.14  0.00  0.00  0.18  0.01  0.00  0.67  0.05  0.00
  YS02001600YS02001601    1.00   0.13  0.01  0.00  0.86  0.00  0.00  0.00  0.62  0.00
  YS02001601YS02001602    1.00   0.13  0.01  0.00  0.86  0.00  0.00  0.00  0.00  0.00
  YS02001602YS02001605    1.00   0.14  0.00  0.00  0.86  0.00  0.00  0.00  0.00  0.00
  YS02001605YS02001607    1.00   0.14  0.00  0.00  0.86  0.00  0.00  0.00  0.00  0.00
  YS02001607YS02001610    1.00   0.13  0.01  0.00  0.86  0.00  0.00  0.00  0.02  0.00
  YS02001610YS02001613    1.00   0.13  0.00  0.00  0.87  0.00  0.00  0.00  0.01  0.00
  YS02001613YS02001616    1.00   0.13  0.00  0.00  0.87  0.00  0.00  0.00  0.01  0.00
  YS02001616YS02001619    1.00   0.13  0.00  0.00  0.87  0.00  0.00  0.00  0.00  0.00
  YS02001619YS02001622    1.00   0.13  0.00  0.00  0.87  0.00  0.00  0.00  0.29  0.00
  YS02001622YS02001625    1.00   0.13  0.00  0.00  0.87  0.00  0.00  0.00  0.06  0.00
  YS02001625YS02001629    1.00   0.13  0.06  0.00  0.17  0.00  0.64  0.00  0.00  0.00
  YS02001629YS02163301    1.00   0.16  0.01  0.00  0.83  0.00  0.00  0.00  0.00  0.00
  YS02001633YS02163601    1.00   0.00  0.01  0.00  0.99  0.00  0.00  0.00  0.15  0.00
  YS02001641YS02001644    1.00   0.00  0.01  0.00  0.99  0.00  0.00  0.00  0.00  0.00
  YS02001644YS02001647    1.00   0.00  0.18  0.00  0.82  0.00  0.00  0.00  0.00  0.00
  YS02001647YS02001649    1.00   0.00  0.18  0.00  0.64  0.17  0.00  0.00  0.58  0.00
  YS02001649YS02001757    1.00   0.00  0.00  0.00  0.89  0.11  0.00  0.00  0.66  0.00
  YS02001652YS02001649    1.00   0.00  0.00  0.00  0.96  0.04  0.00  0.00  0.72  0.00
  YS02001655YS02001652    1.00   0.00  0.00  0.00  0.22  0.01  0.00  0.77  0.05  0.00
  YS02001658YS02001655    1.00   0.00  0.14  0.00  0.69  0.16  0.00  0.00  0.74  0.00
  YS02001661YS02001658    1.00   0.14  0.00  0.00  0.45  0.40  0.00  0.00  0.71  0.00
  YS02001664YS02001661    1.00   0.13  0.00  0.00  0.76  0.11  0.00  0.00  0.86  0.00
  YS02001745YS02001748    1.00   0.00  0.00  0.00  0.04  0.01  0.00  0.95  0.03  0.00
  YS02001748YS02001751    1.00   0.00  0.00  0.00  0.85  0.15  0.00  0.00  0.77  0.00
  YS02001751YS02001754    1.00   0.00  0.00  0.00  0.20  0.01  0.00  0.79  0.04  0.00
  YS02001754YS02001757    1.00   0.00  0.00  0.00  1.00  0.00  0.00  0.00  0.78  0.00
  YS02001757CaochengTiaoxuchi    1.00   0.00  0.00  0.00  0.46  0.54  0.00  0.00  0.24  0.00
  YS02001759YS02001757    1.00   0.00  0.00  0.00  1.00  0.00  0.00  0.00  0.66  0.00
  YS02001762YS02001759    1.00   0.00  0.00  0.00  1.00  0.00  0.00  0.00  0.05  0.00
  YS02001765YS02001762    1.00   0.00  0.00  0.00  1.00  0.00  0.00  0.00  0.66  0.00
  YS02001767YS02001765    1.00   0.00  0.00  0.00  1.00  0.00  0.00  0.00  0.00  0.00
  YS02001770YS02001767    1.00   0.00  0.00  0.00  1.00  0.00  0.00  0.00  0.00  0.00
  YS02001774YS02001770    1.00   0.00  0.13  0.00  0.69  0.00  0.17  0.00  0.04  0.00
  YS02001779YS02001774    1.00   0.00  0.00  0.00  1.00  0.00  0.00  0.00  0.75  0.00
  YS02001783YS02001784    1.00   0.00  0.19  0.00  0.81  0.00  0.00  0.00  0.56  0.00
  YS02001784YS02001785    1.00   0.00  0.00  0.00  1.00  0.00  0.00  0.00  0.18  0.00
  YS02001786YS02001788    1.00   0.00  0.00  0.00  0.80  0.20  0.00  0.00  0.00  0.00
  YS02001788YS02001790    1.00   0.00  0.00  0.00  0.22  0.78  0.00  0.00  0.82  0.00
  YS02001790YS02001791    1.00   0.00  0.00  0.00  0.01  0.99  0.00  0.00  0.15  0.00
  YS02001791YS02001793    1.00   0.00  0.00  0.00  0.00  1.00  0.00  0.00  0.01  0.00
  YS02001793JiankangQianchi    1.00   0.00  0.00  0.00  0.35  0.65  0.00  0.00  0.46  0.00
  YS02001882YS02001884    1.00   0.16  0.01  0.00  0.83  0.00  0.00  0.00  0.00  0.00
  YS02001884YS02001887    1.00   0.06  0.05  0.00  0.89  0.00  0.00  0.00  0.00  0.00
  YS02001887YS02001890    1.00   0.00  0.00  0.00  0.97  0.00  0.03  0.00  0.00  0.00
  YS02001890YS02001895    1.00   0.00  0.17  0.00  0.83  0.00  0.00  0.00  0.00  0.00
  YS02001895YS02001898    1.00   0.17  0.00  0.00  0.80  0.00  0.02  0.00  0.00  0.00
  YS02001898YS02001901    1.00   0.17  0.00  0.00  0.82  0.00  0.00  0.00  0.01  0.00
  YS02001901YS02001904    1.00   0.17  0.00  0.00  0.83  0.00  0.00  0.00  0.00  0.00
  YS02001904YS02001907    1.00   0.00  0.17  0.00  0.83  0.00  0.00  0.00  0.00  0.00
  YS02001907YS02006553    1.00   0.00  0.02  0.00  0.98  0.00  0.00  0.00  0.00  0.00
  YS02001910YS02001907    1.00   0.00  0.00  0.00  0.97  0.00  0.00  0.03  0.12  0.00
  YS02001915YS02001910    1.00   0.00  0.00  0.00  0.96  0.04  0.00  0.00  0.17  0.00
  YS02001918YS02001915    1.00   0.00  0.00  0.00  0.98  0.02  0.00  0.00  0.77  0.00
  YS02001920YS02001918    1.00   0.00  0.00  0.00  1.00  0.00  0.00  0.00  0.01  0.00
  YS02001923YS02001920    1.00   0.00  0.00  0.00  1.00  0.00  0.00  0.00  0.94  0.00
  YS02001926YS02001923    1.00   0.00  0.07  0.00  0.05  0.00  0.88  0.00  0.00  0.00
  YS02001929YS02001926    1.00   0.00  0.13  0.00  0.87  0.00  0.00  0.00  0.83  0.00
  YS02006553YS02006556    1.00   0.01  0.00  0.00  0.99  0.00  0.00  0.00  0.03  0.00
  YS02006556YS02006558    1.00   0.00  0.00  0.00  1.00  0.00  0.00  0.00  0.00  0.00
  YS02006558YS02006561    1.00   0.19  0.00  0.00  0.05  0.76  0.00  0.00  0.19  0.00
  YS02006561YS02001783    1.00   0.19  0.00  0.00  0.07  0.73  0.00  0.00  0.69  0.00
  YS02163301YS02001633    1.00   0.00  0.16  0.00  0.84  0.00  0.00  0.00  0.00  0.00
  YS02163601YS02164001    1.00   0.00  0.08  0.00  0.92  0.00  0.00  0.00  0.00  0.00
  YS02164001YS02001641    1.00   0.01  0.07  0.00  0.92  0.00  0.00  0.00  0.06  0.00
  YSB1154YSB6556          1.00   0.12  0.00  0.00  0.88  0.00  0.00  0.00  0.02  0.00
  YSB1171HS02004479       1.00   0.04  0.00  0.00  0.95  0.00  0.00  0.01  0.10  0.00
  YSB1174YSB1171          1.00   0.05  0.04  0.00  0.91  0.00  0.00  0.00  0.00  0.00
  YSB6556YSB1171          1.00   0.04  0.08  0.00  0.88  0.00  0.00  0.00  0.00  0.00
  
  
  *************************
  Conduit Surcharge Summary
  *************************
  
  ----------------------------------------------------------------------------
                                                           Hours        Hours 
                         --------- Hours Full --------   Above Full   Capacity
  Conduit                Both Ends  Upstream  Dnstream   Normal Flow   Limited
  ----------------------------------------------------------------------------
  HS02004478WS02006287        0.38      0.38      0.54      0.01         0.01
  HS02004479HS02004480        0.54      0.54      0.56      0.01         0.01
  HS02004480HS02004478        0.48      0.53      0.48      1.50         0.48
  HS02004770HS02004777        0.45      0.45      0.46      0.09         0.06
  HS02004777HS02004785        0.41      0.41      0.46      0.01         0.01
  HS02004785HS02004788        0.40      0.41      0.40      1.24         0.37
  HS02004788HS02004792        0.40      0.40      0.51      0.01         0.01
  HS02004792HS02004799        0.51      0.51      0.62      0.01         0.01
  HS02004799HS02004480        0.53      0.53      0.62      0.69         0.01
  HS02004802HS02004478        0.49      0.49      0.55      0.07         0.01
  HS02004807HS02004802        0.53      0.53      0.54      0.20         0.20
  HS02004817HS02004807        0.53      0.53      1.04      0.01         0.01
  HS02004817HS02004824        0.40      0.40      1.04      0.01         0.01
  HS02004824HS02004830        0.37      0.37      0.40      0.01         0.01
  HS02004830HS02004837        0.34      0.34      0.37      0.01         0.01
  HS02004837HS02004842        0.34      0.34      0.46      0.01         0.01
  HS02004842HS02004848        0.30      0.30      0.46      0.01         0.01
  HS02004848HS02004852        0.30      0.30      0.32      0.02         0.01
  HS02004852HS02004856        0.32      0.32      0.33      0.02         0.01
  HS02004856HS02004862        0.29      0.29      0.33      0.01         0.01
  HS02004862HS02004870        0.33      0.33      0.33      0.15         0.14
  HS02004870HS02004876        0.33      0.33      0.39      0.01         0.01
  HS02004876HS02004881        0.36      0.39      0.36      1.27         0.36
  HS02004881HS02006253        0.36      0.36      1.24      0.01         0.01
  HS02004901HS02004770        0.45      0.45      0.46      0.01         0.01
  WS02003072WS02003073        0.01      0.01      0.01      2.64         0.01
  WS02004401WS02004402        1.42      1.42      1.45      1.23         1.23
  WS02004402WS02004403        1.45      1.45      1.45      1.41         1.38
  WS02004403WS02004404        1.45      1.45      1.56      0.01         0.01
  WS02004404WS02004405        1.54      1.56      1.54      3.86         1.54
  WS02004405WS02004406        1.52      1.54      1.52      1.68         1.52
  WS02004406WS02004407        0.01      0.01      1.52      0.01         0.01
  WS02004407WS02004409        0.01      0.01      0.85      0.01         0.01
  WS02004409WS02004410        0.80      0.85      0.80      1.27         0.80
  WS02004410WS02004411        0.74      0.80      0.74      1.30         0.74
  WS02004411WS02004412        0.65      0.74      0.65      1.39         0.65
  WS02004412WS02004413        0.65      0.65      1.20      0.01         0.01
  WS02004413WS02003067        0.01      0.01      1.20      0.01         0.01
  WS02006109WS02006110        1.67      1.67      1.82      1.68         0.01
  WS02006110WS02006113        1.09      1.09      1.81      0.26         0.01
  WS02006111WS02006112        1.06      1.07      2.02      0.01         0.01
  WS02006112WS02006115        1.28      1.28      1.70      0.01         0.01
  WS02006113WS02006111        1.08      1.09      1.08      1.24         1.08
  WS02006115WS02006116        1.29      1.29      1.29      1.27         1.25
  WS02006116WS02004401        1.40      1.40      1.42      1.32         1.31
  WS02006228WS02006109        1.78      1.82      1.78      2.99         1.78
  WS02006229WS02006228        1.78      1.79      1.78      1.99         1.78
  WS02006230WS02006229        1.85      1.94      1.85      3.77         0.97
  WS02006231WS02006230        1.56      1.56      1.62      3.43         0.84
  WS02006232WS02006231        1.61      1.61      1.71      0.01         0.11
  WS02006234WS02006232        1.65      1.65      1.71      0.01         0.01
  WS02006235WS02006234        1.65      1.65      1.65      3.26         0.82
  WS02006238WS02006235        1.66      1.66      1.69      0.01         0.29
  WS02006239WS02006238        1.67      1.67      1.68      0.71         0.04
  WS02006240WS02006239        1.62      1.63      1.65      0.70         0.02
  WS02006242WS02006240        1.61      1.62      1.66      1.06         0.76
  WS02006243WS02006242        1.55      1.55      1.62      0.01         0.01
  WS02006245WS02006243        1.51      1.51      1.54      0.01         0.02
  WS02006247WS02006245        1.50      1.52      1.50      2.82         0.47
  WS02006248WS02006247        1.47      1.47      1.51      0.01         0.01
  WS02006249WS02006248        1.46      1.46      1.47      1.78         0.01
  WS02006251WS02006249        1.45      1.45      1.47      1.03         1.02
  WS02006252WS02006251        1.23      1.24      1.28      0.01         0.01
  WS02006253WS02006251        1.45      1.45      1.47      0.66         0.01
  WS02006256WS02006235        3.45      3.46      4.98      0.71         0.01
  WS02006280WS02006229        0.66      0.66      0.78      0.01         0.01
  WS02006284WS02006280        0.56      0.56      0.64      0.01         0.01
  WS02006287WS02006284        0.47      0.47      0.57      0.23         0.23
  YS02001580YS02001583        0.49      0.49      0.51      0.01         0.01
  YS02001583YS02001586        0.49      0.49      0.58      0.01         0.01
  YS02001586YS02001590        0.59      0.59      0.65      0.01         0.01
  YS02001590YS02001593        0.65      0.65      0.67      0.69         0.01
  YS02001593YS02001596        0.66      0.66      0.75      0.01         0.01
  YS02001596YS02001600        0.79      0.79      0.89      0.01         0.01
  YS02001600YS02001601        0.95      0.95      1.24      0.01         0.01
  YS02001601YS02001602        1.13      1.13      1.27      0.90         0.01
  YS02001602YS02001605        1.08      1.08      1.13      2.12         0.01
  YS02001605YS02001607        1.03      1.08      1.03      1.20         1.03
  YS02001607YS02001610        0.60      0.60      0.62      0.01         0.01
  YS02001610YS02001613        0.59      0.59      0.62      0.01         0.01
  YS02001613YS02001616        0.55      0.55      0.59      0.01         0.01
  YS02001616YS02001619        0.54      0.54      0.55      0.01         0.01
  YS02001619YS02001622        0.53      0.54      0.53      0.68         0.52
  YS02001622YS02001625        0.53      0.53      0.70      0.01         0.01
  YS02001625YS02001629        0.47      0.47      0.70      0.01         0.01
  YS02001629YS02163301        0.69      0.69      0.69      0.29         0.28
  YS02001633YS02163601        0.71      0.71      0.74      0.42         0.42
  YS02001641YS02001644        0.58      0.62      0.58      1.27         0.57
  YS02001644YS02001647        0.37      0.37      0.58      0.05         0.01
  YS02001647YS02001649        0.37      0.37      0.43      0.01         0.01
  YS02001649YS02001757        0.42      0.43      0.45      0.34         0.28
  YS02001652YS02001649        0.31      0.31      0.43      0.01         0.01
  YS02001655YS02001652        0.19      0.19      0.29      0.01         0.01
  YS02001658YS02001655        0.12      0.12      0.19      0.01         0.01
  YS02001661YS02001658        0.01      0.01      0.12      0.01         0.01
  YS02001664YS02001661        0.01      0.01      0.03      0.01         0.01
  YS02001745YS02001748        0.01      0.01      0.04      0.01         0.01
  YS02001748YS02001751        0.09      0.09      0.14      0.01         0.01
  YS02001751YS02001754        0.14      0.14      0.19      0.01         0.01
  YS02001754YS02001757        0.21      0.21      0.45      0.01         0.01
  YS02001757CaochengTiaoxuchi        0.22      0.45      1.61      0.37         0.10
  YS02001759YS02001757        0.38      0.38      0.45      0.01         0.03
  YS02001762YS02001759        0.35      0.35      0.38      0.01         0.03
  YS02001765YS02001762        0.32      0.32      0.35      0.01         0.01
  YS02001767YS02001765        0.30      0.30      0.32      0.01         0.05
  YS02001770YS02001767        0.30      0.30      0.30      0.47         0.29
  YS02001774YS02001770        0.28      0.28      0.34      0.01         0.01
  YS02001779YS02001774        0.21      0.21      0.34      0.01         0.01
  YS02001783YS02001784        0.43      0.45      0.43      0.58         0.43
  YS02001784YS02001785        0.33      0.43      0.33      0.77         0.33
  YS02001786YS02001788        0.01      0.33      0.01      0.67         0.01
  YS02001790YS02001791        0.01      0.01      0.01      0.41         0.01
  YS02001793JiankangQianchi        0.01      0.01      0.50      0.01         0.01
  YS02001882YS02001884        0.40      0.40      0.41      0.01         0.01
  YS02001884YS02001887        0.43      0.43      0.44      0.01         0.01
  YS02001887YS02001890        0.45      0.45      0.46      0.09         0.01
  YS02001890YS02001895        0.39      0.39      0.48      0.01         0.01
  YS02001895YS02001898        0.38      0.38      0.39      0.01         0.01
  YS02001898YS02001901        0.39      0.39      0.43      0.01         0.01
  YS02001901YS02001904        0.42      0.42      0.43      0.01         0.01
  YS02001904YS02001907        0.42      0.42      0.65      0.01         0.01
  YS02001907YS02006553        0.78      0.78      0.84      0.01         0.01
  YS02001910YS02001907        0.47      0.47      0.64      0.01         0.01
  YS02001915YS02001910        0.40      0.40      0.47      0.01         0.01
  YS02001918YS02001915        0.32      0.32      0.40      0.01         0.01
  YS02001920YS02001918        0.32      0.32      0.33      0.01         0.01
  YS02001923YS02001920        0.28      0.28      0.33      0.01         0.01
  YS02001926YS02001923        0.04      0.04      0.08      0.01         0.01
  YS02001929YS02001926        0.01      0.01      0.08      0.01         0.01
  YS02006553YS02006556        0.56      0.56      0.65      0.01         0.01
  YS02006556YS02006558        0.61      0.61      0.67      0.01         0.01
  YS02006558YS02006561        0.35      0.55      0.35      0.74         0.35
  YS02006561YS02001783        0.29      0.29      0.45      0.01         0.01
  YS02163301YS02001633        0.69      0.69      0.73      0.01         0.01
  YS02163601YS02164001        0.64      0.64      0.74      0.22         0.01
  YS02164001YS02001641        0.62      0.64      0.62      0.65         0.50
  YSB1154YSB6556              0.60      0.60      0.72      0.01         0.01
  YSB1171HS02004479           0.50      0.50      0.72      0.01         0.01
  YSB1174YSB1171              0.65      0.65      0.94      0.01         0.01
  YSB6556YSB1171              0.60      0.60      1.10      0.01         0.01
  
  
  ***************
  Pumping Summary
  ***************
  
  ---------------------------------------------------------------------------------------------------------
                                                  Min       Avg       Max     Total     Power    % Time Off
                        Percent   Number of      Flow      Flow      Flow    Volume     Usage    Pump Curve
  Pump                 Utilized   Start-Ups       LPS       LPS       LPS  10^6 ltr     Kw-hr    Low   High
  ---------------------------------------------------------------------------------------------------------
  CC-R1                   57.29           9      0.00    416.45    683.00     3.622     61.56    0.0   87.3
  CC-R2                   75.00          10      0.00    446.22    683.00     6.206    105.22    0.0   84.2
  CC-S1                   21.87          10      0.00    200.00    200.00     1.260      8.30    0.0   28.7
  CC-S2                   18.75          10      0.00    183.90    200.00     0.914      6.30    0.0   25.7
  JK-R1                   46.88           9      0.00    157.72   1000.00     2.092      5.35    0.0    0.0
  JK-R2                   16.67           8      0.00    276.80   1000.00     1.918      5.72    0.0    0.0
  JK-S                    41.67          11      0.00     92.85    300.00     1.052     23.35    0.0    0.0
  XR-1                    97.91           1      0.00     95.00     95.00     2.679      9.63    0.0    0.0
  XR-2                    93.95           1      0.00     95.00     95.00     2.570      8.79    0.0    0.0
  XR-3                     0.00           0      0.00      0.00      0.00     0.000      0.00    0.0    0.0
  XR-4                     0.00           0      0.00      0.00      0.00     0.000      0.00    0.0    0.0
  

  Analysis begun on:  Thu Jun 15 19:52:18 2023
  Analysis ended on:  Thu Jun 15 19:52:29 2023
  Total elapsed time: 00:00:11