
  OWA STORM WATER MANAGEMENT MODEL - VERSION v5.2.3 (OWA 2023-03-28)
  ------------------------------------------------------------

  WARNING 04: minimum elevation drop used for Conduit WS02004404WS02004405
  WARNING 03: negative offset ignored for Link YS02001904YS02001907
  
  ****************
  Analysis Options
  ****************
  Flow Units ............... LPS
  Process Models:
    Rainfall/Runoff ........ YES
    RDII ................... NO
    Snowmelt ............... NO
    Groundwater ............ NO
    Flow Routing ........... YES
    Ponding Allowed ........ NO
    Water Quality .......... NO
  Infiltration Method ...... HORTON
  Flow Routing Method ...... DYNWAVE
  Surcharge Method ......... EXTRAN
  Starting Date ............ 08/28/2015 08:00:00
  Ending Date .............. 08/28/2015 16:00:00
  Antecedent Dry Days ...... 8.0
  Report Time Step ......... 00:01:00
  Wet Time Step ............ 00:01:00
  Dry Time Step ............ 00:01:00
  Routing Time Step ........ 30.00 sec
  Variable Time Step ....... YES
  Maximum Trials ........... 8
  Number of Threads ........ 1
  Head Tolerance ........... 0.001500 m
  
  
  **************************        Volume         Depth
  Runoff Quantity Continuity     hectare-m            mm
  **************************     ---------       -------
  Total Precipitation ......         4.878        80.522
  Evaporation Loss .........         0.000         0.000
  Infiltration Loss ........         0.248         4.102
  Surface Runoff ...........         4.569        75.427
  Final Storage ............         0.061         1.008
  Continuity Error (%) .....        -0.017
  
  
  **************************        Volume        Volume
  Flow Routing Continuity        hectare-m      10^6 ltr
  **************************     ---------     ---------
  Dry Weather Inflow .......         0.630         6.296
  Wet Weather Inflow .......         4.570        45.697
  Groundwater Inflow .......         0.000         0.000
  RDII Inflow ..............         0.000         0.000
  External Inflow ..........         0.105         1.045
  External Outflow .........         3.469        34.691
  Flooding Loss ............         2.235        22.355
  Evaporation Loss .........         0.000         0.000
  Exfiltration Loss ........         0.000         0.000
  Initial Stored Volume ....         0.303         3.031
  Final Stored Volume ......         0.173         1.732
  Continuity Error (%) .....        -4.831
  
  
  *************************
  Highest Continuity Errors
  *************************
  Node JK-storage (-40.75%)
  Node YS02001884 (5.08%)
  Node YS02001583 (-4.52%)
  Node CC-storage (-3.32%)
  Node HS02004842 (1.41%)
  
  
  ***************************
  Time-Step Critical Elements
  ***************************
  Link WS02006252WS02006251 (71.01%)
  Link YS02001793JiankangQianchi (11.09%)
  Link WS02006280WS02006229 (7.34%)
  Link WS02006238WS02006235 (2.30%)
  Link YS02001791YS02001793 (1.66%)
  
  
  ********************************
  Highest Flow Instability Indexes
  ********************************
  Link WS02006113WS02006111 (29)
  Link WS02006111WS02006112 (22)
  Link WS02006238WS02006235 (18)
  Link WS02004404WS02004405 (18)
  Link WS02006235WS02006234 (15)
  
  
  *********************************
  Most Frequent Nonconverging Nodes
  *********************************
  Node CC-1 (9.46%)
  Node CC-2 (9.46%)
  Node JK-1 (9.46%)
  Node JK-2 (9.46%)
  Node WSC (9.46%)
  
  
  *************************
  Routing Time Step Summary
  *************************
  Minimum Time Step           :     0.00 sec
  Average Time Step           :     1.39 sec
  Maximum Time Step           :    30.00 sec
  % of Time in Steady State   :     0.00
  Average Iterations per Step :     3.05
  % of Steps Not Converging   :     9.46
  Time Step Frequencies       :
     30.000 - 13.228 sec      :     0.00 %
     13.228 -  5.833 sec      :     0.11 %
      5.833 -  2.572 sec      :    12.93 %
      2.572 -  1.134 sec      :    31.80 %
      1.134 -  0.500 sec      :    55.15 %
  
  
  ***************************
  Subcatchment Runoff Summary
  ***************************
  
  ------------------------------------------------------------------------------------------------------------------------------
                            Total      Total      Total      Total     Imperv       Perv      Total       Total     Peak  Runoff
                           Precip      Runon       Evap      Infil     Runoff     Runoff     Runoff      Runoff   Runoff   Coeff
  Subcatchment                 mm         mm         mm         mm         mm         mm         mm    10^6 ltr      LPS
  ------------------------------------------------------------------------------------------------------------------------------
  sub0                      80.52       0.00       0.00       1.03      73.64       4.61      78.25        0.06    40.92   0.972
  sub1                      80.52       0.00       0.00       1.76      70.42       7.10      77.51        0.52   285.44   0.963
  sub10                     80.52       0.00       0.00       1.24      72.80       5.20      78.00        0.86   484.25   0.969
  sub11                     80.52       0.00       0.00       1.22      72.82       5.22      78.04        0.91   531.49   0.969
  sub12                     80.52       0.00       0.00       1.99      68.88       8.48      77.36        0.68   422.47   0.961
  sub14                     80.52       0.00       0.00       1.40      72.02       5.85      77.87        0.74   426.69   0.967
  sub15                     80.52       0.00       0.00       5.45      55.40      18.71      74.10        1.27   675.85   0.920
  sub16                     80.52       0.00       0.00       5.65      53.04      20.93      73.97        0.77   447.11   0.919
  sub17                     80.52       0.00       0.00       5.50      53.83      20.27      74.10        0.64   364.00   0.920
  sub2                      80.52       0.00       0.00       7.78      49.83      22.02      71.84        0.67   304.15   0.892
  sub22                     80.52       0.00       0.00       8.26      45.12      26.37      71.49        4.52  2275.68   0.888
  sub23                     80.52       0.00       0.00       6.74      49.87      23.06      72.93        3.48  1868.01   0.906
  sub3                      80.52       0.00       0.00       8.46      49.78      21.34      71.12        1.60   662.44   0.883
  sub4                      80.52       0.00       0.00       1.96      70.25       6.90      77.15        1.61   724.69   0.958
  sub5                      80.52       0.00       0.00       1.08      73.58       4.55      78.14        0.89   490.74   0.970
  sub60                     80.52       0.00       0.00       1.87      69.66       7.79      77.45        1.02   602.37   0.962
  sub61                     80.52       0.00       0.00       2.72      65.70      10.98      76.68        1.41   837.02   0.952
  sub62                     80.52       0.00       0.00       1.25      72.79       5.20      77.99        2.14  1189.43   0.969
  sub63                     80.52       0.00       0.00       5.01      56.20      18.35      74.55        1.69   957.16   0.926
  sub64                     80.52       0.00       0.00       2.53      67.24       9.55      76.78        1.84   978.79   0.954
  sub65                     80.52       0.00       0.00       2.19      68.80       8.28      77.08        2.12  1098.55   0.957
  sub66                     80.52       0.00       0.00       6.19      56.09      17.17      73.26        3.42  1483.82   0.910
  sub67                     80.52       0.00       0.00       1.20      72.84       5.24      78.08        1.45   897.16   0.970
  sub68                     80.52       0.00       0.00       2.25      68.06       9.03      77.09        2.12  1217.51   0.957
  sub69                     80.52       0.00       0.00       2.02      68.33      10.06      78.39        2.90  1461.98   0.974
  sub7                      80.52       0.00       0.00       1.37      72.03       5.87      77.91        0.26   156.44   0.968
  sub70                     80.52       0.00       0.00       6.72      52.98      20.66      73.64        2.13   837.72   0.915
  sub71                     80.52       0.00       0.00       1.28      72.75       5.16      77.91        2.04  1058.06   0.968
  sub72                     80.52       0.00       0.00       1.14      73.48       4.50      77.98        1.07   519.97   0.968
  sub8                      80.52       0.00       0.00       1.39      72.02       5.86      77.88        0.50   289.42   0.967
  sub9                      80.52       0.00       0.00       1.39      72.02       5.86      77.88        0.37   216.62   0.967
  
  
  ******************
  Node Depth Summary
  ******************
  
  ---------------------------------------------------------------------------------
                                 Average  Maximum  Maximum  Time of Max    Reported
                                   Depth    Depth      HGL   Occurrence   Max Depth
  Node                 Type       Meters   Meters   Meters  days hr:min      Meters
  ---------------------------------------------------------------------------------
  HS02004478           JUNCTION     0.24     1.59    10.82     0  01:59        1.59
  HS02004479           JUNCTION     0.31     1.69    10.90     0  01:54        1.67
  HS02004480           JUNCTION     0.28     1.67    10.91     0  01:54        1.63
  HS02004770           JUNCTION     0.28     1.42    11.25     0  01:51        1.42
  HS02004777           JUNCTION     0.30     1.48    11.28     0  01:51        1.48
  HS02004785           JUNCTION     0.20     1.44    11.34     0  01:51        1.44
  HS02004788           JUNCTION     0.17     1.42    11.32     0  01:50        1.42
  HS02004792           JUNCTION     0.23     1.60    11.12     0  01:48        1.60
  HS02004799           JUNCTION     0.34     1.76    10.97     0  01:54        1.76
  HS02004802           JUNCTION     0.34     1.80    10.93     0  01:58        1.80
  HS02004807           JUNCTION     0.31     1.92    11.09     0  01:54        1.92
  HS02004817           JUNCTION     0.61     2.44    11.28     0  01:54        2.41
  HS02004824           JUNCTION     0.19     2.01    11.41     0  01:54        2.01
  HS02004830           JUNCTION     0.19     2.03    11.50     0  01:54        2.00
  HS02004837           JUNCTION     0.16     2.01    11.59     0  01:54        1.93
  HS02004842           JUNCTION     0.46     2.22    11.49     0  01:54        2.22
  HS02004848           JUNCTION     0.14     2.07    11.67     0  01:54        1.93
  HS02004852           JUNCTION     0.15     2.12    11.63     0  01:54        1.99
  HS02004856           JUNCTION     0.21     2.07    11.50     0  01:54        2.04
  HS02004862           JUNCTION     0.16     2.00    11.38     0  01:53        2.00
  HS02004870           JUNCTION     0.16     2.08    11.37     0  01:53        2.01
  HS02004876           JUNCTION     0.20     2.10    11.13     0  02:00        2.10
  HS02004881           JUNCTION     0.14     2.05    11.07     0  01:53        1.85
  HS02004901           JUNCTION     0.29     1.42    11.24     0  01:51        1.42
  WS02001211           JUNCTION     0.63     0.82     5.66     0  02:05        0.82
  WS02001212           JUNCTION     0.38     0.58     5.64     0  02:05        0.58
  WS02001213           JUNCTION     0.60     0.88     5.64     0  02:05        0.88
  WS02003059           JUNCTION     0.66     0.95     5.63     0  02:05        0.95
  WS02003060           JUNCTION     0.39     0.69     5.63     0  02:04        0.69
  WS02003066           JUNCTION     0.24     0.46     6.01     0  02:02        0.46
  WS02003067           JUNCTION     0.56     0.89     6.21     0  02:00        0.89
  WS02003069           JUNCTION     0.44     0.79     5.37     0  02:05        0.79
  WS02003072           JUNCTION     0.50     0.82     5.19     0  02:05        0.82
  WS02003073           JUNCTION     0.30     0.52     4.58     0  02:06        0.52
  WS02004138           JUNCTION     0.13     0.14     7.39     0  00:32        0.14
  WS02004139           JUNCTION     0.57     0.75     5.66     0  02:05        0.75
  WS02004401           JUNCTION     0.80     1.93     7.93     0  02:02        1.93
  WS02004402           JUNCTION     0.82     1.87     7.83     0  02:01        1.86
  WS02004403           JUNCTION     0.82     1.79     7.72     0  02:02        1.78
  WS02004404           JUNCTION     0.89     1.80     7.65     0  02:01        1.79
  WS02004405           JUNCTION     0.88     1.75     7.60     0  02:01        1.74
  WS02004406           JUNCTION     0.87     1.63     7.46     0  02:02        1.62
  WS02004407           JUNCTION     0.28     0.98     7.29     0  02:01        0.98
  WS02004409           JUNCTION     0.56     1.42     7.19     0  02:01        1.41
  WS02004410           JUNCTION     0.56     1.32     7.04     0  02:02        1.32
  WS02004411           JUNCTION     0.57     1.23     6.91     0  02:01        1.22
  WS02004412           JUNCTION     0.57     1.12     6.76     0  02:02        1.12
  WS02004413           JUNCTION     0.71     1.15     6.62     0  02:01        1.15
  WS02006109           JUNCTION     1.00     2.64     9.26     0  01:51        2.64
  WS02006110           JUNCTION     0.94     2.42     9.00     0  02:01        2.41
  WS02006111           JUNCTION     0.43     1.81     8.51     0  02:02        1.81
  WS02006112           JUNCTION     1.01     2.68     8.56     0  00:00        2.46
  WS02006113           JUNCTION     0.51     1.87     8.76     0  02:01        1.87
  WS02006115           JUNCTION     0.71     2.39     8.52     0  01:30        2.04
  WS02006116           JUNCTION     0.79     2.03     8.07     0  02:01        2.02
  WS02006228           JUNCTION     1.05     3.03     9.68     0  01:54        3.02
  WS02006229           JUNCTION     1.05     3.22     9.92     0  01:58        3.22
  WS02006230           JUNCTION     0.97     2.65     9.39     0  01:47        2.65
  WS02006231           JUNCTION     0.70     2.19     9.31     0  01:50        2.19
  WS02006232           JUNCTION     0.80     2.18     9.22     0  01:46        2.18
  WS02006234           JUNCTION     0.68     1.96     9.12     0  01:44        1.96
  WS02006235           JUNCTION     0.70     2.00     9.16     0  02:45        1.95
  WS02006238           JUNCTION     0.72     2.06     9.21     0  02:45        1.93
  WS02006239           JUNCTION     0.66     2.03     9.24     0  01:30        1.79
  WS02006240           JUNCTION     0.61     2.10     9.39     0  01:27        1.64
  WS02006242           JUNCTION     0.65     1.55     8.82     0  01:27        1.55
  WS02006243           JUNCTION     0.54     1.48     8.90     0  01:27        1.39
  WS02006245           JUNCTION     0.53     1.56     9.05     0  01:27        1.27
  WS02006247           JUNCTION     0.54     1.32     8.82     0  01:27        1.25
  WS02006248           JUNCTION     0.48     1.10     8.69     0  01:27        1.10
  WS02006249           JUNCTION     0.51     1.09     8.69     0  01:27        1.09
  WS02006251           JUNCTION     0.60     2.21     9.88     0  01:53        2.16
  WS02006252           JUNCTION     0.43     1.50     9.74     0  01:25        1.50
  WS02006253           JUNCTION     0.68     3.37    11.02     0  01:53        3.12
  WS02006256           JUNCTION     0.98     2.35     9.28     0  00:11        2.35
  WS02006280           JUNCTION     0.30     1.74    10.01     0  01:59        1.73
  WS02006284           JUNCTION     0.56     1.95    10.35     0  02:04        1.95
  WS02006287           JUNCTION     0.30     1.75    10.70     0  01:59        1.75
  WSF200               JUNCTION     0.23     0.53     5.76     0  02:02        0.53
  YS02001580           JUNCTION     0.10     1.05     9.59     0  01:49        0.77
  YS02001583           JUNCTION     0.13     1.14     9.64     0  01:49        0.82
  YS02001586           JUNCTION     0.21     1.13     9.30     0  01:49        1.13
  YS02001590           JUNCTION     0.31     1.40     9.26     0  01:49        1.37
  YS02001593           JUNCTION     0.24     1.33     9.19     0  01:49        1.30
  YS02001596           JUNCTION     0.32     1.68     9.10     0  01:49        1.65
  YS02001600           JUNCTION     0.38     1.87     9.00     0  01:49        1.86
  YS02001601           JUNCTION     0.57     2.06     8.90     0  01:48        2.06
  YS02001602           JUNCTION     0.49     1.87     8.77     0  01:49        1.87
  YS02001605           JUNCTION     0.46     1.78     8.68     0  01:49        1.78
  YS02001607           JUNCTION     0.45     1.68     8.53     0  01:49        1.68
  YS02001610           JUNCTION     0.49     1.68     8.48     0  01:49        1.68
  YS02001613           JUNCTION     0.45     1.70     8.54     0  01:49        1.70
  YS02001616           JUNCTION     0.39     1.61     8.52     0  01:49        1.61
  YS02001619           JUNCTION     0.36     1.61     8.54     0  01:49        1.61
  YS02001622           JUNCTION     0.35     1.62     8.52     0  01:49        1.62
  YS02001625           JUNCTION     0.61     1.78     8.38     0  01:53        1.78
  YS02001629           JUNCTION     0.49     1.85     8.40     0  01:56        1.85
  YS02001633           JUNCTION     0.57     2.04     8.50     0  01:59        2.04
  YS02001641           JUNCTION     0.55     1.95     8.39     0  01:57        1.95
  YS02001644           JUNCTION     0.54     1.92     8.35     0  01:56        1.92
  YS02001647           JUNCTION     0.34     1.77     8.38     0  01:57        1.74
  YS02001649           JUNCTION     0.42     1.98     8.37     0  02:00        1.95
  YS02001652           JUNCTION     0.30     1.88     8.47     0  01:57        1.80
  YS02001655           JUNCTION     0.21     1.95     8.80     0  01:56        1.60
  YS02001658           JUNCTION     0.13     2.20     9.35     0  01:57        1.35
  YS02001661           JUNCTION     0.15     1.27     8.68     0  01:58        1.14
  YS02001664           JUNCTION     0.06     0.59     8.51     0  02:01        0.58
  YS02001745           JUNCTION     0.06     0.79     8.30     0  02:01        0.78
  YS02001748           JUNCTION     0.13     1.96     9.04     0  01:57        1.22
  YS02001751           JUNCTION     0.18     1.72     8.60     0  01:57        1.39
  YS02001754           JUNCTION     0.27     1.82     8.43     0  01:57        1.65
  YS02001757           JUNCTION     0.45     2.02     8.28     0  01:57        1.98
  YS02001759           JUNCTION     0.39     1.99     8.35     0  02:00        1.99
  YS02001762           JUNCTION     0.38     2.00     8.40     0  01:57        1.96
  YS02001765           JUNCTION     0.36     1.96     8.41     0  01:57        1.93
  YS02001767           JUNCTION     0.35     1.93     8.42     0  01:57        1.91
  YS02001770           JUNCTION     0.36     1.95     8.45     0  01:55        1.95
  YS02001774           JUNCTION     0.42     2.00     8.43     0  01:55        1.99
  YS02001779           JUNCTION     0.25     1.68     8.37     0  01:55        1.68
  YS02001783           JUNCTION     0.24     1.36     7.50     0  01:54        1.24
  YS02001784           JUNCTION     0.26     1.18     7.25     0  01:54        1.12
  YS02001786           JUNCTION     0.21     0.92     6.95     0  01:54        0.87
  YS02001788           JUNCTION     0.15     0.63     6.60     0  02:00        0.62
  YS02001790           JUNCTION     0.18     0.72     6.37     0  01:58        0.72
  YS02001791           JUNCTION     0.11     0.44     5.91     0  02:03        0.43
  YS02001793           JUNCTION     0.07     0.26     5.09     0  01:58        0.25
  YS02001882           JUNCTION     0.31     1.67     8.39     0  02:00        1.67
  YS02001884           JUNCTION     0.40     1.76     8.38     0  02:00        1.76
  YS02001887           JUNCTION     0.47     1.85     8.38     0  02:00        1.85
  YS02001890           JUNCTION     0.50     1.81     8.32     0  01:54        1.81
  YS02001895           JUNCTION     0.28     1.57     8.32     0  01:59        1.57
  YS02001898           JUNCTION     0.29     1.56     8.30     0  01:58        1.56
  YS02001901           JUNCTION     0.40     1.68     8.29     0  01:54        1.68
  YS02001904           JUNCTION     0.38     1.64     8.27     0  02:08        1.64
  YS02001907           JUNCTION     0.69     1.96     8.25     0  01:54        1.96
  YS02001910           JUNCTION     0.49     1.98     8.48     0  01:54        1.93
  YS02001915           JUNCTION     0.31     1.91     8.62     0  01:54        1.88
  YS02001918           JUNCTION     0.17     1.81     8.88     0  01:54        1.81
  YS02001920           JUNCTION     0.25     2.14     9.15     0  01:54        2.07
  YS02001923           JUNCTION     0.13     2.03     9.29     0  01:54        2.03
  YS02001926           JUNCTION     0.17     1.90     9.35     0  01:54        1.90
  YS02001929           JUNCTION     0.09     1.78     9.47     0  01:54        1.78
  YS02006553           JUNCTION     0.69     1.99     8.28     0  01:54        1.99
  YS02006556           JUNCTION     0.67     2.00     8.31     0  01:59        2.00
  YS02006558           JUNCTION     0.71     2.05     8.32     0  01:59        2.05
  YS02006561           JUNCTION     0.15     1.08     7.74     0  01:54        0.90
  YS02163301           JUNCTION     0.51     1.93     8.45     0  01:59        1.93
  YS02163601           JUNCTION     0.60     2.04     8.44     0  01:57        2.04
  YS02164001           JUNCTION     0.54     1.96     8.42     0  01:57        1.96
  YSB1154              JUNCTION     0.45     2.00    11.06     0  01:59        2.00
  YSB1171              JUNCTION     0.59     1.95    10.85     0  01:51        1.95
  YSB1174              JUNCTION     0.40     1.85    10.96     0  02:00        1.85
  YSB6556              JUNCTION     0.34     1.79    10.96     0  01:51        1.79
  CC-1                 OUTFALL      0.00     0.00     0.00     0  00:00        0.00
  CC-2                 OUTFALL      0.00     0.00     0.00     0  00:00        0.00
  JK-1                 OUTFALL      0.00     0.00     0.00     0  00:00        0.00
  JK-2                 OUTFALL      0.00     0.00     0.00     0  00:00        0.00
  WSC                  OUTFALL      0.30     0.52     1.19     0  02:06        0.52
  CC-storage           STORAGE      0.64     1.78     7.28     0  02:55        1.78
  JK-storage           STORAGE      0.13     3.89     4.69     0  02:40        3.89
  XR-storage           STORAGE      7.89     9.26     7.26     0  08:00        9.26
  
  
  *******************
  Node Inflow Summary
  *******************
  
  -------------------------------------------------------------------------------------------------
                                  Maximum  Maximum                  Lateral       Total        Flow
                                  Lateral    Total  Time of Max      Inflow      Inflow     Balance
                                   Inflow   Inflow   Occurrence      Volume      Volume       Error
  Node                 Type           LPS      LPS  days hr:min    10^6 ltr    10^6 ltr     Percent
  -------------------------------------------------------------------------------------------------
  HS02004478           JUNCTION      0.00  2304.50     0  01:59           0        10.4      -0.005
  HS02004479           JUNCTION      0.00   397.95     0  01:54           0        1.02       0.074
  HS02004480           JUNCTION      0.00  2069.99     0  01:53           0         7.7       0.026
  HS02004770           JUNCTION   1868.01  1868.01     0  02:02        3.48        3.75       0.075
  HS02004777           JUNCTION      0.03   714.80     0  01:50    0.000864         2.2       0.236
  HS02004785           JUNCTION      0.15   724.49     0  01:50     0.00432         2.2       0.021
  HS02004788           JUNCTION    677.52   883.93     0  01:50        1.32        3.52       0.002
  HS02004792           JUNCTION   2275.96  3133.26     0  02:02        4.52        8.04       0.001
  HS02004799           JUNCTION    426.69  1719.33     0  01:52       0.741           7       0.042
  HS02004802           JUNCTION      0.00  1233.94     0  02:05           0        2.86       0.137
  HS02004807           JUNCTION    531.49  1726.95     0  02:02       0.907        3.11       0.129
  HS02004817           JUNCTION      0.60  1197.01     0  02:04      0.0173        2.26       0.738
  HS02004824           JUNCTION    724.74  1300.57     0  02:04        1.61        2.53       0.027
  HS02004830           JUNCTION      0.15   583.15     0  01:51     0.00432        1.18       0.109
  HS02004837           JUNCTION    490.60   779.45     0  01:54        1.04        1.56       0.036
  HS02004842           JUNCTION      0.00   781.67     0  01:52           0       0.917       1.425
  HS02004848           JUNCTION    662.44  1041.83     0  01:54         1.6        2.29      -0.019
  HS02004852           JUNCTION      0.00  1014.51     0  01:54           0        2.08      -0.028
  HS02004856           JUNCTION    216.62  1079.65     0  01:53       0.375        2.46       0.058
  HS02004862           JUNCTION    304.35  1162.41     0  01:53       0.675        3.13      -0.009
  HS02004870           JUNCTION    289.42  1247.83     0  02:04       0.498        3.62       0.009
  HS02004876           JUNCTION    285.44  1510.82     0  02:04       0.516        4.13       0.015
  HS02004881           JUNCTION    156.44  1658.38     0  02:02       0.263        4.39       0.010
  HS02004901           JUNCTION    447.11   711.50     0  02:02       0.775        1.23       0.140
  WS02001211           JUNCTION      7.35   207.37     0  01:40       0.212        5.44       0.611
  WS02001212           JUNCTION      0.00   208.48     0  03:07           0        5.41       0.290
  WS02001213           JUNCTION      0.00   212.03     0  03:19           0        5.39       0.332
  WS02003059           JUNCTION      0.00   217.58     0  03:18           0        5.38       0.597
  WS02003060           JUNCTION     16.53  1530.35     0  02:05       0.476        15.7       0.095
  WS02003066           JUNCTION      0.00  1329.81     0  02:02           0         9.9       0.016
  WS02003067           JUNCTION      0.00  1329.82     0  02:02           0         9.9       0.045
  WS02003069           JUNCTION      0.32  1530.62     0  02:05     0.00922        15.7       0.099
  WS02003072           JUNCTION      0.00  1530.63     0  02:05           0        15.7       0.134
  WS02003073           JUNCTION      1.82  1532.49     0  02:06      0.0524        15.7       0.139
  WS02004138           JUNCTION      0.00   190.00     0  00:29           0        5.25       0.054
  WS02004139           JUNCTION      0.32   190.32     0  00:32     0.00924        5.26       0.507
  WS02004401           JUNCTION      0.00  1329.79     0  02:01           0          10       0.115
  WS02004402           JUNCTION      0.00  1329.90     0  02:01           0          10       0.113
  WS02004403           JUNCTION      0.00  1330.12     0  02:01           0        9.99       0.110
  WS02004404           JUNCTION      0.16  1329.74     0  02:01     0.00467        9.99       0.089
  WS02004405           JUNCTION      0.04  1330.88     0  02:01      0.0011        9.98       0.130
  WS02004406           JUNCTION      0.00  1330.38     0  02:01           0        9.97       0.218
  WS02004407           JUNCTION      0.00  1330.17     0  02:01           0        9.94       0.016
  WS02004409           JUNCTION      0.00  1329.70     0  02:02           0        9.94       0.032
  WS02004410           JUNCTION      0.00  1330.04     0  02:02           0        9.93       0.051
  WS02004411           JUNCTION      0.00  1330.14     0  02:02           0        9.93       0.062
  WS02004412           JUNCTION      0.00  1329.99     0  02:02           0        9.92       0.083
  WS02004413           JUNCTION      0.00  1329.87     0  02:02           0        9.91       0.141
  WS02006109           JUNCTION      1.23  1308.01     0  00:00      0.0354        9.72       0.118
  WS02006110           JUNCTION      0.00  1123.63     0  02:25           0        9.33      -0.377
  WS02006111           JUNCTION      0.00  1176.04     0  00:00           0        9.36      -0.403
  WS02006112           JUNCTION    364.00  2307.30     0  00:00       0.636          10      -0.002
  WS02006113           JUNCTION      0.00  1123.52     0  02:25           0        9.32      -0.483
  WS02006115           JUNCTION      0.00  2152.75     0  00:00           0          10       0.045
  WS02006116           JUNCTION      0.00  1329.98     0  02:01           0          10      -0.012
  WS02006228           JUNCTION      0.00  1288.75     0  01:59           0        9.67       0.067
  WS02006229           JUNCTION      0.00  2305.33     0  01:59           0        12.7       0.086
  WS02006230           JUNCTION     10.28  1026.65     0  01:59       0.296        5.41       0.109
  WS02006231           JUNCTION      0.00   453.22     0  01:58           0        3.88      -0.126
  WS02006232           JUNCTION      0.00   453.29     0  01:54           0        3.88       0.132
  WS02006234           JUNCTION      0.00   453.10     0  01:58           0        3.88      -0.074
  WS02006235           JUNCTION      0.00   416.19     0  02:00           0        3.83       0.127
  WS02006238           JUNCTION      0.00   415.47     0  02:10           0        3.59      -0.127
  WS02006239           JUNCTION      0.00   414.95     0  01:52           0        3.59      -0.111
  WS02006240           JUNCTION      0.00   414.88     0  02:41           0        3.59       0.014
  WS02006242           JUNCTION      0.00   418.36     0  01:27           0        3.59       0.066
  WS02006243           JUNCTION      0.00   447.64     0  01:27           0         3.1      -0.005
  WS02006245           JUNCTION      0.00   468.40     0  01:27           0        3.11       0.224
  WS02006247           JUNCTION      0.00   470.32     0  01:27           0        3.11       0.030
  WS02006248           JUNCTION      0.00   485.27     0  01:27           0        3.45      -0.003
  WS02006249           JUNCTION      0.00  1376.86     0  02:02           0        6.76       0.090
  WS02006251           JUNCTION      0.08  1698.32     0  02:02     0.00222        6.98       0.018
  WS02006252           JUNCTION      0.00   521.98     0  02:02           0        2.94      -0.306
  WS02006253           JUNCTION     40.92  1698.46     0  02:01      0.0634        4.48       0.002
  WS02006256           JUNCTION      0.00   300.00     0  01:35           0        1.18      -0.048
  WS02006280           JUNCTION      0.00  2304.96     0  01:59           0        10.4       0.010
  WS02006284           JUNCTION      0.10  2304.52     0  01:59     0.00275        10.3      -0.005
  WS02006287           JUNCTION      0.00  2304.98     0  01:59           0        10.3       0.007
  WSF200               JUNCTION      0.00  1329.87     0  02:02           0        9.89       0.008
  YS02001580           JUNCTION      0.00    76.97     0  01:49           0     0.00408      -0.514
  YS02001583           JUNCTION      0.00   135.01     0  01:49           0      0.0153      -4.324
  YS02001586           JUNCTION    837.72   837.72     0  02:04        2.13        2.14       0.054
  YS02001590           JUNCTION      0.00   318.05     0  02:11           0        1.58      -0.019
  YS02001593           JUNCTION      0.00   318.04     0  02:11           0        1.58      -0.003
  YS02001596           JUNCTION      0.00   317.92     0  02:07           0        1.58      -0.014
  YS02001600           JUNCTION      0.00   317.98     0  02:11           0        1.58       0.009
  YS02001601           JUNCTION   1461.98  1779.46     0  02:03         2.9        4.48       0.015
  YS02001602           JUNCTION      0.00   501.46     0  01:48           0        2.63       0.020
  YS02001605           JUNCTION      0.00   501.11     0  01:48           0        2.48       0.019
  YS02001607           JUNCTION      0.00   500.81     0  01:48           0        2.48       0.072
  YS02001610           JUNCTION      0.00   835.56     0  02:04           0        2.85       0.072
  YS02001613           JUNCTION      0.00   502.85     0  01:48           0        2.27       0.064
  YS02001616           JUNCTION      0.00   501.70     0  01:49           0        2.27       0.012
  YS02001619           JUNCTION   1483.82  1483.82     0  02:04        3.42        5.31      -0.004
  YS02001622           JUNCTION      0.00   991.83     0  02:03           0        4.94      -0.002
  YS02001625           JUNCTION      0.00  1419.08     0  02:04           0         5.2       0.225
  YS02001629           JUNCTION      0.00   929.35     0  01:53           0        4.12      -0.024
  YS02001633           JUNCTION   1098.75  1373.72     0  01:53        2.13        5.94       0.056
  YS02001641           JUNCTION      0.00  1372.47     0  01:53           0        5.65       0.048
  YS02001644           JUNCTION    978.83  1775.29     0  01:53        1.85        7.48       0.038
  YS02001647           JUNCTION      0.00  1775.03     0  01:53           0        7.03       0.001
  YS02001649           JUNCTION      0.00  2032.59     0  01:53           0        8.73       0.004
  YS02001652           JUNCTION      0.00   979.47     0  02:01           0         1.7      -0.094
  YS02001655           JUNCTION      0.15   979.24     0  02:01     0.00443         1.7      -0.062
  YS02001658           JUNCTION      0.00   978.77     0  02:01           0        1.69      -0.002
  YS02001661           JUNCTION      0.00   977.87     0  02:01           0        1.69       0.010
  YS02001664           JUNCTION    957.16   957.16     0  02:02        1.69        1.69      -0.004
  YS02001745           JUNCTION    602.37   602.37     0  02:02        1.02        1.02       0.164
  YS02001748           JUNCTION      0.04   611.06     0  02:01      0.0013        1.02      -0.232
  YS02001751           JUNCTION      0.01   611.54     0  02:01    0.000317        1.02       0.074
  YS02001754           JUNCTION      0.26   612.21     0  02:01     0.00749        1.03      -0.116
  YS02001757           JUNCTION      0.00  3532.39     0  02:01           0        13.1       0.020
  YS02001759           JUNCTION    837.06  1445.91     0  02:01        1.41        3.35      -0.012
  YS02001762           JUNCTION      0.00   828.63     0  02:08           0        1.94       0.000
  YS02001765           JUNCTION      0.00   828.95     0  02:08           0        1.94      -0.006
  YS02001767           JUNCTION      0.54   828.38     0  02:08      0.0154        1.94       0.002
  YS02001770           JUNCTION   1189.58  1189.58     0  02:02        2.14        2.19      -0.013
  YS02001774           JUNCTION      0.00   594.56     0  02:02           0       0.291       0.290
  YS02001779           JUNCTION      0.01   595.55     0  02:02    0.000144        0.24      -0.265
  YS02001783           JUNCTION      0.00  1167.47     0  01:59           0        4.84       0.005
  YS02001784           JUNCTION      1.06  1168.36     0  01:59      0.0305        4.87       0.011
  YS02001786           JUNCTION      0.06  1168.32     0  01:59     0.00162        4.87       0.014
  YS02001788           JUNCTION      0.07  1169.03     0  01:59     0.00204        4.87       0.006
  YS02001790           JUNCTION      0.15  1175.76     0  02:02     0.00446        4.88       0.009
  YS02001791           JUNCTION      0.00  1293.68     0  02:00           0        4.87      -0.013
  YS02001793           JUNCTION      0.00  1255.50     0  01:58           0        4.88       0.003
  YS02001882           JUNCTION      0.00    36.92     0  01:51           0      0.0126       5.334
  YS02001884           JUNCTION      0.00    47.64     0  01:50           0      0.0481       5.355
  YS02001887           JUNCTION    897.61   898.54     0  02:01        1.47         1.5       0.301
  YS02001890           JUNCTION      0.00   898.86     0  02:01           0        1.46       0.344
  YS02001895           JUNCTION      0.00   518.23     0  02:05           0        1.31       0.137
  YS02001898           JUNCTION      0.00   518.31     0  02:06           0        1.31       0.014
  YS02001901           JUNCTION      0.00   518.13     0  02:05           0        1.31       0.251
  YS02001904           JUNCTION      0.00   518.22     0  02:08           0        1.31       0.217
  YS02001907           JUNCTION      0.00  2144.21     0  02:02           0        4.51       0.392
  YS02001910           JUNCTION      0.00  1586.07     0  02:02           0        3.19       0.225
  YS02001915           JUNCTION   1058.08  1586.03     0  02:02        2.04        3.22       0.050
  YS02001918           JUNCTION      0.00   528.33     0  02:02           0        1.21       0.017
  YS02001920           JUNCTION      2.87   528.49     0  02:02      0.0827        1.19       0.080
  YS02001923           JUNCTION      0.04   525.12     0  02:02     0.00109         1.1      -0.015
  YS02001926           JUNCTION      0.05   524.46     0  02:02      0.0015        1.08       0.020
  YS02001929           JUNCTION    519.97   519.97     0  02:03        1.07        1.07      -0.056
  YS02006553           JUNCTION      0.00   794.42     0  02:22           0        2.76       0.430
  YS02006556           JUNCTION      0.00   794.28     0  02:22           0        2.76       0.296
  YS02006558           JUNCTION   1218.39  1218.39     0  02:02        2.15        4.88       0.080
  YS02006561           JUNCTION      0.00  1167.51     0  01:59           0        4.84      -0.007
  YS02163301           JUNCTION      0.00   928.72     0  01:53           0        4.12       0.032
  YS02163601           JUNCTION      0.11  1373.70     0  01:53     0.00317        5.64       0.085
  YS02164001           JUNCTION      0.00  1373.19     0  01:53           0        5.64       0.034
  YSB1154              JUNCTION    490.74   490.74     0  02:02       0.885       0.886       0.169
  YSB1171              JUNCTION      0.00  1143.85     0  02:02           0        1.73       0.357
  YSB1174              JUNCTION    422.47   422.47     0  02:01       0.676       0.677       0.187
  YSB6556              JUNCTION      0.00   490.62     0  02:02           0       0.887       0.132
  CC-1                 OUTFALL       0.00   683.00     0  00:05           0        7.09       0.000
  CC-2                 OUTFALL       0.00   683.00     0  00:05           0        6.01       0.000
  JK-1                 OUTFALL       0.00  1000.00     0  00:05           0        2.85       0.000
  JK-2                 OUTFALL       0.00  1000.00     0  01:35           0        3.04       0.000
  WSC                  OUTFALL       0.00  1532.53     0  02:06           0        15.7       0.000
  CC-storage           STORAGE       0.00  3532.25     0  02:02           0        15.3      -3.210
  JK-storage           STORAGE       0.00  1306.34     0  01:58           0        5.03     -28.952
  XR-storage           STORAGE     200.00   200.00     0  00:00        5.76        6.36       0.001
  
  
  **********************
  Node Surcharge Summary
  **********************
  
  Surcharging occurs when water rises above the top of the highest conduit.
  ---------------------------------------------------------------------
                                               Max. Height   Min. Depth
                                   Hours       Above Crown    Below Rim
  Node                 Type      Surcharged         Meters       Meters
  ---------------------------------------------------------------------
  HS02004478           JUNCTION        0.64          0.671        0.269
  HS02004479           JUNCTION        0.80          0.893        0.157
  HS02004480           JUNCTION        0.85          0.960        0.140
  HS02004770           JUNCTION        0.73          0.720        0.000
  HS02004777           JUNCTION        0.74          0.780        0.000
  HS02004785           JUNCTION        0.68          0.737        0.053
  HS02004788           JUNCTION        0.66          0.720        0.000
  HS02004792           JUNCTION        0.81          0.900        0.000
  HS02004799           JUNCTION        0.97          1.060        0.000
  HS02004802           JUNCTION        0.86          1.091        0.119
  HS02004807           JUNCTION        0.84          1.220        0.000
  HS02004817           JUNCTION        1.54          1.737        0.003
  HS02004824           JUNCTION        0.66          1.310        0.000
  HS02004830           JUNCTION        0.63          1.330        0.000
  HS02004837           JUNCTION        0.58          1.306        0.034
  HS02004842           JUNCTION        0.75          1.520        0.000
  HS02004848           JUNCTION        0.54          1.370        0.000
  HS02004852           JUNCTION        0.56          1.420        0.000
  HS02004856           JUNCTION        0.55          1.300        0.000
  HS02004862           JUNCTION        0.59          1.300        0.000
  HS02004870           JUNCTION        0.61          1.380        0.020
  HS02004876           JUNCTION        0.67          1.404        0.156
  HS02004881           JUNCTION        0.64          1.345        0.105
  HS02004901           JUNCTION        0.74          0.720        0.000
  WS02004401           JUNCTION        1.86          0.933        0.727
  WS02004402           JUNCTION        1.88          0.874        0.866
  WS02004403           JUNCTION        1.89          0.792        1.238
  WS02004404           JUNCTION        1.96          0.800        1.980
  WS02004405           JUNCTION        1.95          0.745        2.055
  WS02004406           JUNCTION        1.93          0.630        1.820
  WS02004409           JUNCTION        1.36          0.418        1.942
  WS02004410           JUNCTION        1.28          0.322        2.218
  WS02004411           JUNCTION        1.14          0.228        2.302
  WS02004412           JUNCTION        1.02          0.119        2.191
  WS02004413           JUNCTION        1.57          0.153        2.047
  WS02006109           JUNCTION        2.24          1.820        0.000
  WS02006110           JUNCTION        2.07          1.507        0.343
  WS02006111           JUNCTION        1.56          0.997        0.873
  WS02006112           JUNCTION        2.11          1.680        0.000
  WS02006113           JUNCTION        1.57          1.071        0.859
  WS02006115           JUNCTION        1.72          1.376        0.874
  WS02006116           JUNCTION        1.73          0.966        1.324
  WS02006228           JUNCTION        2.24          2.200        0.000
  WS02006229           JUNCTION        1.18          1.045        0.025
  WS02006230           JUNCTION        1.97          1.570        0.000
  WS02006231           JUNCTION        2.01          1.480        0.050
  WS02006232           JUNCTION        2.13          1.480        0.000
  WS02006234           JUNCTION        2.04          1.240        0.000
  WS02006235           JUNCTION        2.05          1.290        0.000
  WS02006238           JUNCTION        2.07          1.342        0.088
  WS02006239           JUNCTION        2.04          1.290        0.000
  WS02006240           JUNCTION        2.04          1.390        0.000
  WS02006242           JUNCTION        2.06          0.820        0.000
  WS02006243           JUNCTION        2.01          0.770        0.000
  WS02006245           JUNCTION        1.98          0.850        0.000
  WS02006247           JUNCTION        1.98          0.606        0.154
  WS02006248           JUNCTION        1.94          0.380        0.000
  WS02006249           JUNCTION        1.96          0.390        0.000
  WS02006251           JUNCTION        1.70          1.180        0.000
  WS02006252           JUNCTION        1.85          1.100        0.000
  WS02006253           JUNCTION        1.70          2.335        0.145
  WS02006256           JUNCTION        7.49          2.050        0.000
  WS02006280           JUNCTION        1.00          0.694        0.086
  WS02006284           JUNCTION        0.89          0.673        0.127
  WS02006287           JUNCTION        0.76          0.749        0.141
  YS02001580           JUNCTION        0.81          0.450        0.000
  YS02001583           JUNCTION        0.82          0.500        0.000
  YS02001586           JUNCTION        0.99          0.510        0.000
  YS02001590           JUNCTION        1.09          0.750        0.000
  YS02001593           JUNCTION        1.09          0.712        0.128
  YS02001596           JUNCTION        1.25          0.950        0.120
  YS02001600           JUNCTION        1.42          1.190        0.000
  YS02001601           JUNCTION        1.71          1.440        0.000
  YS02001602           JUNCTION        1.62          1.270        0.000
  YS02001605           JUNCTION        1.58          1.180        0.000
  YS02001607           JUNCTION        1.10          0.680        0.000
  YS02001610           JUNCTION        1.15          0.680        0.000
  YS02001613           JUNCTION        1.10          0.700        0.000
  YS02001616           JUNCTION        1.04          0.610        0.000
  YS02001619           JUNCTION        1.03          0.610        0.000
  YS02001622           JUNCTION        1.02          0.620        0.000
  YS02001625           JUNCTION        1.28          0.780        0.000
  YS02001629           JUNCTION        0.95          0.470        0.000
  YS02001633           JUNCTION        1.32          1.023        0.037
  YS02001641           JUNCTION        1.27          0.954        0.146
  YS02001644           JUNCTION        1.25          0.920        0.000
  YS02001647           JUNCTION        0.92          0.767        0.133
  YS02001649           JUNCTION        1.15          0.978        0.072
  YS02001652           JUNCTION        0.76          0.845        0.285
  YS02001655           JUNCTION        0.39          0.951        0.249
  YS02001658           JUNCTION        0.23          1.204        0.096
  YS02001661           JUNCTION        0.05          0.204        1.186
  YS02001748           JUNCTION        0.13          0.884        0.306
  YS02001751           JUNCTION        0.25          0.719        0.481
  YS02001754           JUNCTION        0.45          0.775        0.375
  YS02001757           JUNCTION        1.23          1.020        0.190
  YS02001759           JUNCTION        1.13          0.990        0.220
  YS02001762           JUNCTION        1.10          0.995        0.155
  YS02001765           JUNCTION        1.04          0.955        0.145
  YS02001767           JUNCTION        0.91          0.930        0.100
  YS02001770           JUNCTION        0.87          0.920        0.000
  YS02001774           JUNCTION        1.07          1.004        0.046
  YS02001779           JUNCTION        0.45          0.680        0.000
  YS02001783           JUNCTION        0.69          0.563        1.037
  YS02001784           JUNCTION        0.66          0.378        1.112
  YS02001786           JUNCTION        0.53          0.125        1.305
  YS02001882           JUNCTION        0.62          0.671        0.159
  YS02001884           JUNCTION        0.63          0.701        0.169
  YS02001887           JUNCTION        0.68          0.795        0.155
  YS02001890           JUNCTION        0.70          0.760        0.000
  YS02001895           JUNCTION        0.61          0.572        0.178
  YS02001898           JUNCTION        0.60          0.531        0.209
  YS02001901           JUNCTION        0.66          0.679        0.191
  YS02001904           JUNCTION        0.65          0.638        0.212
  YS02001907           JUNCTION        0.97          0.950        0.000
  YS02001910           JUNCTION        0.73          0.976        0.124
  YS02001915           JUNCTION        0.62          0.905        0.095
  YS02001918           JUNCTION        0.52          0.810        0.000
  YS02001920           JUNCTION        0.53          1.140        0.000
  YS02001923           JUNCTION        0.17          0.820        0.000
  YS02001926           JUNCTION        0.20          0.900        0.000
  YS02001929           JUNCTION        0.01          0.780        0.000
  YS02006553           JUNCTION        0.99          0.993        0.197
  YS02006556           JUNCTION        0.85          0.957        0.393
  YS02006558           JUNCTION        0.83          0.948        0.452
  YS02006561           JUNCTION        0.48          0.281        0.869
  YS02163301           JUNCTION        1.30          0.932        0.098
  YS02163601           JUNCTION        1.35          1.037        0.043
  YS02164001           JUNCTION        1.27          0.957        0.143
  YSB1154              JUNCTION        1.15          1.303        0.097
  YSB1171              JUNCTION        1.16          1.100        0.000
  YSB1174              JUNCTION        1.02          1.153        0.097
  YSB6556              JUNCTION        0.92          1.090        0.010
  
  
  *********************
  Node Flooding Summary
  *********************
  
  Flooding refers to all water that overflows a node, whether it ponds or not.
  --------------------------------------------------------------------------
                                                             Total   Maximum
                                 Maximum   Time of Max       Flood    Ponded
                        Hours       Rate    Occurrence      Volume     Depth
  Node                 Flooded       LPS   days hr:min    10^6 ltr    Meters
  --------------------------------------------------------------------------
  HS02004770              0.50   1423.51      0  02:02       1.091     0.000
  HS02004777              0.01     15.09      0  01:51       0.000     0.000
  HS02004788              0.01    261.64      0  01:50       0.001     0.000
  HS02004792              0.50   1990.80      0  02:02       1.779     0.000
  HS02004799              0.27    264.28      0  02:02       0.149     0.000
  HS02004807              0.17    495.06      0  02:02       0.199     0.000
  HS02004824              0.09    104.49      0  02:04       0.023     0.000
  HS02004830              0.01     15.46      0  01:54       0.000     0.000
  HS02004842              0.08    180.11      0  01:54       0.014     0.000
  HS02004848              0.01    365.83      0  01:54       0.001     0.000
  HS02004852              0.01    261.49      0  01:54       0.000     0.000
  HS02004856              0.01    176.66      0  01:54       0.000     0.000
  HS02004862              0.07    317.10      0  01:53       0.014     0.000
  HS02004901              0.59    711.44      0  02:02       0.961     0.000
  WS02006109              0.56    323.14      0  02:02       0.362     0.000
  WS02006112              0.01   1153.65      0  00:00       0.035     0.000
  WS02006228              0.01      0.62      0  01:54       0.000     0.000
  WS02006230              0.89    573.87      0  01:59       1.261     0.000
  WS02006232              0.24      0.73      0  02:39       0.000     0.000
  WS02006234              1.00    128.38      0  01:53       0.342     0.000
  WS02006235              0.01     15.95      0  02:45       0.000     0.000
  WS02006239              0.01     65.46      0  01:30       0.000     0.000
  WS02006240              0.01    168.36      0  01:27       0.000     0.000
  WS02006242              1.12    150.60      0  01:27       0.492     0.000
  WS02006243              0.01    123.35      0  01:27       0.001     0.000
  WS02006245              0.01    153.91      0  01:27       0.000     0.000
  WS02006248              1.53    340.48      0  01:44       1.604     0.000
  WS02006249              1.70   1315.88      0  02:02       4.574     0.000
  WS02006251              0.01     23.49      0  01:53       0.000     0.000
  WS02006252              0.43    521.68      0  02:01       0.448     0.000
  WS02006256              0.93    295.68      0  02:40       0.664     0.000
  YS02001580              0.01     41.26      0  01:49       0.000     0.000
  YS02001583              0.01     67.35      0  01:49       0.000     0.000
  YS02001586              0.64    520.38      0  02:04       0.549     0.000
  YS02001590              0.01      6.59      0  01:49       0.000     0.000
  YS02001600              0.01      1.76      0  01:49       0.000     0.000
  YS02001601              0.90   1381.54      0  02:03       1.854     0.000
  YS02001602              0.70     61.90      0  02:24       0.140     0.000
  YS02001605              0.01      2.91      0  01:49       0.000     0.000
  YS02001607              0.01      2.60      0  01:49       0.000     0.000
  YS02001610              0.60    835.32      0  02:04       0.952     0.000
  YS02001613              0.01      2.26      0  01:49       0.000     0.000
  YS02001616              0.01      4.97      0  01:49       0.000     0.000
  YS02001619              0.01      6.06      0  01:49       0.000     0.000
  YS02001622              0.01      9.73      0  01:49       0.000     0.000
  YS02001625              0.53   1418.76      0  02:04       1.368     0.000
  YS02001629              0.16    140.58      0  02:01       0.051     0.000
  YS02001644              0.21   1058.90      0  02:02       0.445     0.000
  YS02001770              0.01     11.73      0  01:55       0.000     0.000
  YS02001779              0.18    595.45      0  02:02       0.216     0.000
  YS02001890              0.23    382.70      0  02:01       0.143     0.000
  YS02001907              0.46   2143.91      0  02:02       1.754     0.000
  YS02001918              0.01     97.48      0  01:55       0.001     0.000
  YS02001920              0.01     27.90      0  01:54       0.000     0.000
  YS02001923              0.01     52.31      0  01:54       0.000     0.000
  YS02001926              0.01     56.34      0  01:55       0.000     0.000
  YS02001929              0.01    307.21      0  01:54       0.001     0.000
  YSB1171                 0.38   1143.80      0  02:02       0.878     0.000
  
  
  **********************
  Storage Volume Summary
  **********************
  
  ------------------------------------------------------------------------------------------------
                         Average    Avg   Evap  Exfil     Maximum    Max    Time of Max    Maximum
                          Volume   Pcnt   Pcnt   Pcnt      Volume   Pcnt     Occurrence    Outflow
  Storage Unit           1000 m   Full   Loss   Loss     1000 m   Full    days hr:min        LPS
  ------------------------------------------------------------------------------------------------
  CC-storage               1.790   27.9    0.0    0.0       4.947   77.2       0  02:55    1566.00
  JK-storage               0.006    2.2    0.0    0.0       0.195   67.1       0  02:40    2300.00
  XR-storage               0.947   65.8    0.0    0.0       1.111   77.1       0  08:00     190.00
  
  
  ***********************
  Outfall Loading Summary
  ***********************
  
  -----------------------------------------------------------
                         Flow       Avg       Max       Total
                         Freq      Flow      Flow      Volume
  Outfall Node           Pcnt       LPS       LPS    10^6 ltr
  -----------------------------------------------------------
  CC-1                  55.01    617.17    683.00       7.092
  CC-2                  75.41    425.96    683.00       6.006
  JK-1                  72.30    160.40   1000.00       2.851
  JK-2                  45.58    283.94   1000.00       3.041
  WSC                  100.00    638.21   1532.53      15.700
  -----------------------------------------------------------
  System                69.66   2125.68   4202.98      34.690
  
  
  ********************
  Link Flow Summary
  ********************
  
  -----------------------------------------------------------------------------
                                 Maximum  Time of Max   Maximum    Max/    Max/
                                  |Flow|   Occurrence   |Veloc|    Full    Full
  Link                 Type          LPS  days hr:min     m/sec    Flow   Depth
  -----------------------------------------------------------------------------
  1                    CONDUIT   1532.53     0  02:06      3.71    0.53    0.52
  HS02004478WS02006287 CONDUIT   2304.98     0  01:59      2.57    0.65    1.00
  HS02004479HS02004480 CONDUIT    398.70     0  01:54      0.57    0.39    1.00
  HS02004480HS02004478 CONDUIT   2070.36     0  01:53      2.96    8.72    1.00
  HS02004770HS02004777 CONDUIT    714.77     0  01:50      1.02    1.31    1.00
  HS02004777HS02004785 CONDUIT    724.34     0  01:50      1.09    0.89    1.00
  HS02004785HS02004788 CONDUIT    674.30     0  01:50      1.35    5.08    1.00
  HS02004788HS02004792 CONDUIT    859.01     0  02:01      1.45    0.57    1.00
  HS02004792HS02004799 CONDUIT   1566.45     0  01:52      2.24    0.96    1.00
  HS02004799HS02004480 CONDUIT   1719.51     0  01:52      2.46    2.17    1.00
  HS02004802HS02004478 CONDUIT   1233.36     0  02:03      1.76    1.09    1.00
  HS02004807HS02004802 CONDUIT   1233.94     0  02:05      1.76    2.36    1.00
  HS02004817HS02004807 CONDUIT   1196.97     0  02:03      1.71    0.71    1.00
  HS02004817HS02004824 CONDUIT   1196.41     0  02:04      1.71    0.54    1.00
  HS02004824HS02004830 CONDUIT    583.00     0  01:51      0.83    0.76    1.00
  HS02004830HS02004837 CONDUIT    583.66     0  01:51      0.91    0.58    1.00
  HS02004837HS02004842 CONDUIT    781.67     0  01:52      1.12    0.47    1.00
  HS02004842HS02004848 CONDUIT    782.26     0  01:52      1.23    0.46    1.00
  HS02004848HS02004852 CONDUIT   1014.51     0  01:54      1.57    1.14    1.00
  HS02004852HS02004856 CONDUIT    987.55     0  01:53      1.45    1.13    1.00
  HS02004856HS02004862 CONDUIT   1043.58     0  01:53      1.69    1.04    1.00
  HS02004862HS02004870 CONDUIT   1125.08     0  01:53      1.89    1.22    1.00
  HS02004870HS02004876 CONDUIT   1248.08     0  02:05      1.78    0.83    1.00
  HS02004876HS02004881 CONDUIT   1510.91     0  02:04      2.43   16.07    1.00
  HS02004881HS02006253 CONDUIT   1658.53     0  02:02      2.37    0.32    1.00
  HS02004901HS02004770 CONDUIT    265.79     0  02:20      0.38    1.00    1.00
  WS02001211WS02001212 CONDUIT    208.48     0  03:07      0.54    0.16    0.70
  WS02001212WS02001213 CONDUIT    212.03     0  03:19      1.03    0.33    0.57
  WS02001213WS02003059 CONDUIT    217.58     0  03:18      0.47    0.36    0.90
  WS02003059WS02003060 CONDUIT    224.24     0  03:18      0.65    0.15    0.82
  WS02003060WS02003069 CONDUIT   1530.30     0  02:05      2.09    0.60    0.62
  WS02003066WSF200     CONDUIT   1329.87     0  02:02      3.26    0.22    0.39
  WS02003067WS02003066 CONDUIT   1329.81     0  02:02      2.03    0.43    0.56
  WS02003069WS02003072 CONDUIT   1530.63     0  02:05      1.90    0.74    0.67
  WS02003072WS02003073 CONDUIT   1530.67     0  02:06      2.07    3.31    0.62
  WS02004138WS02004139 CONDUIT    190.00     0  00:32      2.17    0.04    0.42
  WS02004139WS02001211 CONDUIT    200.02     0  01:40      0.55    0.25    0.61
  WS02004401WS02004402 CONDUIT   1329.90     0  02:01      2.07    1.60    1.00
  WS02004402WS02004403 CONDUIT   1330.12     0  02:01      1.84    1.91    1.00
  WS02004403WS02004404 CONDUIT   1329.58     0  02:01      1.69    0.96    1.00
  WS02004404WS02004405 CONDUIT   1330.85     0  02:01      1.86   13.04    1.00
  WS02004405WS02004406 CONDUIT   1330.38     0  02:01      1.80    2.62    1.00
  WS02004406WS02004407 CONDUIT   1330.17     0  02:01      1.71    0.59    0.99
  WS02004407WS02004409 CONDUIT   1329.70     0  02:02      1.94    0.47    0.99
  WS02004409WS02004410 CONDUIT   1330.04     0  02:02      1.69    1.72    1.00
  WS02004410WS02004411 CONDUIT   1330.14     0  02:02      1.69    1.82    1.00
  WS02004411WS02004412 CONDUIT   1329.99     0  02:02      1.69    1.89    1.00
  WS02004412WS02004413 CONDUIT   1329.87     0  02:02      1.69    0.89    1.00
  WS02004413WS02003067 CONDUIT   1329.82     0  02:02      2.05    0.57    0.77
  WS02006109WS02006110 CONDUIT   1306.78     0  00:00      3.15    2.51    1.00
  WS02006110WS02006113 CONDUIT   1123.52     0  02:25      2.24    1.02    1.00
  WS02006111WS02006112 CONDUIT   2307.30     0  00:00      9.18    1.10    1.00
  WS02006112WS02006115 CONDUIT   2152.75     0  00:00      2.85    1.27    1.00
  WS02006113WS02006111 CONDUIT   1176.04     0  00:00      2.74    1.41    1.00
  WS02006115WS02006116 CONDUIT   1329.98     0  02:01      1.81    1.71    1.00
  WS02006116WS02004401 CONDUIT   1329.79     0  02:01      2.21    1.83    1.00
  WS02006228WS02006109 CONDUIT   1288.49     0  01:59      2.56    5.63    1.00
  WS02006229WS02006228 CONDUIT   1288.75     0  01:59      2.56    4.27    1.00
  WS02006230WS02006229 CONDUIT   1016.37     0  01:59      2.64   22.62    1.00
  WS02006231WS02006230 CONDUIT    453.22     0  01:58      1.29    6.87    1.00
  WS02006232WS02006231 CONDUIT    453.29     0  01:54      1.18    0.95    1.00
  WS02006234WS02006232 CONDUIT    453.10     0  01:58      1.18    0.92    1.00
  WS02006235WS02006234 CONDUIT    416.19     0  02:00      1.08    4.39    1.00
  WS02006238WS02006235 CONDUIT    415.47     0  02:10      1.23    0.93    1.00
  WS02006239WS02006238 CONDUIT    414.95     0  01:52      1.08    1.33    1.00
  WS02006240WS02006239 CONDUIT    414.88     0  02:41      1.09    1.31    1.00
  WS02006242WS02006240 CONDUIT    414.91     0  02:11      1.08    1.65    1.00
  WS02006243WS02006242 CONDUIT    418.36     0  01:27      1.18    0.89    1.00
  WS02006245WS02006243 CONDUIT    447.64     0  01:27      1.31    1.32    1.00
  WS02006247WS02006245 CONDUIT    468.40     0  01:27      1.28    3.71    1.00
  WS02006248WS02006247 CONDUIT    470.32     0  01:27      1.31    1.02    1.00
  WS02006249WS02006248 CONDUIT    485.27     0  01:27      1.36    2.66    1.00
  WS02006251WS02006249 CONDUIT   1376.86     0  02:02      3.58    3.97    1.00
  WS02006252WS02006251 CONDUIT   1298.45     0  00:05     20.66    4.77    1.00
  WS02006253WS02006251 CONDUIT   1698.24     0  02:02      4.41    5.09    1.00
  WS02006256WS02006235 CONDUIT    185.50     0  04:25      2.62    1.96    1.00
  WS02006280WS02006229 CONDUIT   2305.33     0  01:59      3.93    0.49    1.00
  WS02006284WS02006280 CONDUIT   2304.96     0  01:59      3.02    0.97    1.00
  WS02006287WS02006284 CONDUIT   2304.43     0  01:59      2.93    1.07    1.00
  WSF200WS02003060     CONDUIT   1329.79     0  02:02      2.32    0.30    0.51
  YS02001580YS02001583 CONDUIT     76.97     0  01:49      0.56    0.30    1.00
  YS02001583YS02001586 CONDUIT    135.01     0  01:49      0.57    0.20    1.00
  YS02001586YS02001590 CONDUIT    318.05     0  02:11      1.24    0.56    1.00
  YS02001590YS02001593 CONDUIT    318.04     0  02:11      1.12    2.00    1.00
  YS02001593YS02001596 CONDUIT    317.92     0  02:07      1.69    0.50    1.00
  YS02001596YS02001600 CONDUIT    317.98     0  02:11      1.22    0.62    1.00
  YS02001600YS02001601 CONDUIT    317.84     0  02:06      1.12    0.55    1.00
  YS02001601YS02001602 CONDUIT    501.46     0  01:48      1.77    1.81    1.00
  YS02001602YS02001605 CONDUIT    501.11     0  01:48      1.77   10.60    1.00
  YS02001605YS02001607 CONDUIT    500.81     0  01:48      1.77    2.75    1.00
  YS02001607YS02001610 CONDUIT    501.04     0  01:48      0.64    0.48    1.00
  YS02001610YS02001613 CONDUIT    502.85     0  01:48      0.64    0.58    1.00
  YS02001613YS02001616 CONDUIT    501.70     0  01:49      0.64    0.43    1.00
  YS02001616YS02001619 CONDUIT    512.10     0  01:49      0.67    0.89    1.00
  YS02001619YS02001622 CONDUIT    991.83     0  02:03      1.26    1.46    1.00
  YS02001622YS02001625 CONDUIT    992.22     0  02:03      1.26    0.53    1.00
  YS02001625YS02001629 CONDUIT    929.35     0  01:53      1.19    0.44    1.00
  YS02001629YS02163301 CONDUIT    928.72     0  01:53      1.18    1.14    1.00
  YS02001633YS02163601 CONDUIT   1373.59     0  01:53      1.75    1.44    1.00
  YS02001641YS02001644 CONDUIT   1372.43     0  01:53      1.75    4.44    1.00
  YS02001644YS02001647 CONDUIT   1775.03     0  01:53      2.26    1.04    1.00
  YS02001647YS02001649 CONDUIT   1778.04     0  01:54      2.31    0.94    1.00
  YS02001649YS02001757 CONDUIT   2028.13     0  01:54      2.58    1.23    1.00
  YS02001652YS02001649 CONDUIT    979.48     0  02:01      1.25    0.49    1.00
  YS02001655YS02001652 CONDUIT    979.47     0  02:01      1.30    0.48    1.00
  YS02001658YS02001655 CONDUIT    979.09     0  02:01      1.83    0.42    1.00
  YS02001661YS02001658 CONDUIT    978.77     0  02:01      2.30    0.38    1.00
  YS02001664YS02001661 CONDUIT    977.87     0  02:01      2.29    0.31    0.79
  YS02001745YS02001748 CONDUIT    611.01     0  02:01      2.16    0.24    0.89
  YS02001748YS02001751 CONDUIT    611.53     0  02:01      1.66    0.31    1.00
  YS02001751YS02001754 CONDUIT    611.95     0  02:01      1.34    0.29    1.00
  YS02001754YS02001757 CONDUIT    611.60     0  02:01      0.78    0.25    1.00
  YS02001757CaochengTiaoxuchi CONDUIT   3532.25     0  02:02      6.29    1.53    1.00
  YS02001759YS02001757 CONDUIT   1446.88     0  02:01      1.84    1.03    1.00
  YS02001762YS02001759 CONDUIT    833.02     0  02:08      1.06    0.96    1.00
  YS02001765YS02001762 CONDUIT    828.63     0  02:08      1.06    0.78    1.00
  YS02001767YS02001765 CONDUIT    828.95     0  02:08      1.06    1.04    1.00
  YS02001770YS02001767 CONDUIT    827.85     0  02:08      1.05    3.28    1.00
  YS02001774YS02001770 CONDUIT    594.56     0  02:02      0.76    0.38    1.00
  YS02001779YS02001774 CONDUIT    595.54     0  02:02      0.76    0.30    1.00
  YS02001783YS02001784 CONDUIT   1167.30     0  01:59      2.32    1.61    1.00
  YS02001784YS02001785 CONDUIT   1168.26     0  01:59      2.32    2.72    1.00
  YS02001786YS02001788 CONDUIT   1168.96     0  01:59      2.49    2.25    0.89
  YS02001788YS02001790 CONDUIT   1175.61     0  02:02      2.72    0.87    0.84
  YS02001790YS02001791 CONDUIT   1293.68     0  02:00      3.43    1.41    0.70
  YS02001791YS02001793 CONDUIT   1255.50     0  01:58      6.75    0.54    0.43
  YS02001793JiankangQianchi CONDUIT   1306.34     0  01:58     24.97    0.10    0.61
  YS02001882YS02001884 CONDUIT     36.92     0  01:51      0.16    0.04    1.00
  YS02001884YS02001887 CONDUIT     47.64     0  01:50      0.12    0.06    1.00
  YS02001887YS02001890 CONDUIT    898.86     0  02:01      1.14    1.54    1.00
  YS02001890YS02001895 CONDUIT    518.23     0  02:05      0.66    0.24    1.00
  YS02001895YS02001898 CONDUIT    518.31     0  02:06      0.66    0.90    1.00
  YS02001898YS02001901 CONDUIT    518.13     0  02:05      0.66    0.33    1.00
  YS02001901YS02001904 CONDUIT    518.22     0  02:08      0.66    0.80    1.00
  YS02001904YS02001907 CONDUIT    518.40     0  02:05      0.66    0.18    1.00
  YS02001907YS02006553 CONDUIT    794.42     0  02:22      0.88    0.93    1.00
  YS02001910YS02001907 CONDUIT   1586.54     0  02:02      2.02    0.89    1.00
  YS02001915YS02001910 CONDUIT   1586.07     0  02:02      2.02    0.79    1.00
  YS02001918YS02001915 CONDUIT    528.14     0  02:02      0.67    0.29    1.00
  YS02001920YS02001918 CONDUIT    528.33     0  02:02      0.67    0.51    1.00
  YS02001923YS02001920 CONDUIT    525.62     0  02:02      0.70    0.24    1.00
  YS02001926YS02001923 CONDUIT    525.09     0  02:02      0.94    0.75    1.00
  YS02001929YS02001926 CONDUIT    524.41     0  02:02      1.09    0.25    1.00
  YS02006553YS02006556 CONDUIT    794.28     0  02:22      1.01    0.68    1.00
  YS02006556YS02006558 CONDUIT    794.70     0  02:22      1.01    0.63    1.00
  YS02006558YS02006561 CONDUIT   1167.51     0  01:59      4.13    2.58    1.00
  YS02006561YS02001783 CONDUIT   1167.47     0  01:59      2.32    0.60    1.00
  YS02163301YS02001633 CONDUIT    928.69     0  01:53      1.18    0.87    1.00
  YS02163601YS02164001 CONDUIT   1373.19     0  01:53      1.75    1.22    1.00
  YS02164001YS02001641 CONDUIT   1372.47     0  01:53      1.75    1.87    1.00
  YSB1154YSB6556       CONDUIT    490.62     0  02:02      1.27    0.88    1.00
  YSB1171HS02004479    CONDUIT    397.95     0  01:54      0.79    0.27    1.00
  YSB1174YSB1171       CONDUIT    422.61     0  02:01      1.10    0.65    1.00
  YSB6556YSB1171       CONDUIT    491.40     0  02:02      1.28    0.51    1.00
  CC-R1                PUMP       683.00     0  00:05              1.00
  CC-R2                PUMP       683.00     0  00:05              1.00
  CC-S1                PUMP       200.00     0  01:25              1.00
  CC-S2                PUMP       200.00     0  00:05              1.00
  JK-R1                PUMP      1000.00     0  00:05              1.00
  JK-R2                PUMP      1000.00     0  01:35              1.00
  JK-S                 PUMP       300.00     0  01:35              1.00
  XR-1                 PUMP        95.00     0  00:10              1.00
  XR-2                 PUMP        95.00     0  00:29              1.00
  XR-3                 PUMP         0.00     0  00:00              0.00
  XR-4                 PUMP         0.00     0  00:00              0.00
  
  
  ***************************
  Flow Classification Summary
  ***************************
  
  -------------------------------------------------------------------------------------
                      Adjusted    ---------- Fraction of Time in Flow Class ---------- 
                       /Actual         Up    Down  Sub   Sup   Up    Down  Norm  Inlet 
  Conduit               Length    Dry  Dry   Dry   Crit  Crit  Crit  Crit  Ltd   Ctrl  
  -------------------------------------------------------------------------------------
  1                       1.00   0.00  0.00  0.00  0.00  1.00  0.00  0.00  0.56  0.00
  HS02004478WS02006287    1.00   0.15  0.00  0.00  0.68  0.17  0.00  0.00  0.58  0.00
  HS02004479HS02004480    1.00   0.04  0.00  0.00  0.96  0.00  0.00  0.00  0.11  0.00
  HS02004480HS02004478    1.00   0.13  0.00  0.00  0.64  0.00  0.00  0.23  0.00  0.00
  HS02004770HS02004777    1.00   0.00  0.13  0.00  0.87  0.00  0.00  0.00  0.02  0.00
  HS02004777HS02004785    1.00   0.00  0.00  0.00  1.00  0.00  0.00  0.00  0.11  0.00
  HS02004785HS02004788    1.00   0.00  0.00  0.00  1.00  0.00  0.00  0.00  0.00  0.00
  HS02004788HS02004792    1.00   0.00  0.00  0.00  0.99  0.01  0.00  0.00  0.88  0.00
  HS02004792HS02004799    1.00   0.00  0.00  0.00  0.99  0.01  0.00  0.00  0.82  0.00
  HS02004799HS02004480    1.00   0.00  0.03  0.00  0.85  0.00  0.12  0.00  0.00  0.00
  HS02004802HS02004478    1.00   0.13  0.01  0.00  0.87  0.00  0.00  0.00  0.02  0.00
  HS02004807HS02004802    1.00   0.13  0.00  0.00  0.86  0.00  0.00  0.02  0.00  0.00
  HS02004817HS02004807    1.00   0.00  0.13  0.00  0.87  0.00  0.00  0.00  0.01  0.00
  HS02004817HS02004824    1.00   0.00  0.00  0.00  1.00  0.00  0.00  0.00  0.79  0.00
  HS02004824HS02004830    1.00   0.00  0.00  0.00  1.00  0.00  0.00  0.00  0.01  0.00
  HS02004830HS02004837    1.00   0.00  0.00  0.00  1.00  0.00  0.00  0.00  0.85  0.00
  HS02004837HS02004842    1.00   0.00  0.00  0.00  0.99  0.01  0.00  0.00  0.11  0.00
  HS02004842HS02004848    1.00   0.00  0.13  0.00  0.87  0.00  0.00  0.00  0.54  0.00
  HS02004848HS02004852    1.00   0.13  0.00  0.00  0.87  0.00  0.00  0.00  0.69  0.00
  HS02004852HS02004856    1.00   0.13  0.01  0.00  0.87  0.00  0.00  0.00  0.64  0.00
  HS02004856HS02004862    1.00   0.00  0.16  0.00  0.84  0.00  0.00  0.00  0.72  0.00
  HS02004862HS02004870    1.00   0.00  0.00  0.00  1.00  0.00  0.00  0.00  0.03  0.00
  HS02004870HS02004876    1.00   0.00  0.00  0.00  1.00  0.00  0.00  0.00  0.83  0.00
  HS02004876HS02004881    1.00   0.01  0.00  0.00  0.85  0.15  0.00  0.00  0.00  0.00
  HS02004881HS02006253    1.00   0.03  0.02  0.00  0.42  0.01  0.00  0.53  0.32  0.00
  HS02004901HS02004770    1.00   0.13  0.00  0.00  0.87  0.00  0.00  0.00  0.00  0.00
  WS02001211WS02001212    1.00   0.00  0.02  0.00  0.98  0.00  0.00  0.00  0.00  0.00
  WS02001212WS02001213    1.00   0.02  0.00  0.00  0.41  0.00  0.56  0.00  0.00  0.00
  WS02001213WS02003059    1.00   0.00  0.01  0.00  0.99  0.00  0.00  0.00  0.00  0.00
  WS02003059WS02003060    1.00   0.00  0.00  0.00  1.00  0.00  0.00  0.00  0.03  0.00
  WS02003060WS02003069    1.00   0.00  0.00  0.00  0.97  0.03  0.00  0.00  0.43  0.00
  WS02003066WSF200        1.00   0.06  0.00  0.00  0.00  0.94  0.00  0.00  0.67  0.00
  WS02003067WS02003066    1.00   0.05  0.01  0.00  0.94  0.00  0.00  0.00  0.00  0.00
  WS02003069WS02003072    1.00   0.00  0.00  0.00  0.99  0.01  0.00  0.00  0.55  0.00
  WS02003072WS02003073    1.00   0.00  0.00  0.00  0.00  0.00  0.00  1.00  0.00  0.00
  WS02004138WS02004139    1.00   0.02  0.00  0.00  0.97  0.01  0.00  0.00  0.98  0.00
  WS02004139WS02001211    1.00   0.00  0.01  0.00  0.99  0.00  0.00  0.00  0.00  0.00
  WS02004401WS02004402    1.00   0.00  0.00  0.00  1.00  0.00  0.00  0.00  0.00  0.00
  WS02004402WS02004403    1.00   0.00  0.00  0.00  1.00  0.00  0.00  0.00  0.00  0.00
  WS02004403WS02004404    1.00   0.00  0.00  0.00  1.00  0.00  0.00  0.00  0.00  0.00
  WS02004404WS02004405    1.00   0.00  0.00  0.00  1.00  0.00  0.00  0.00  0.01  0.00
  WS02004405WS02004406    1.00   0.00  0.00  0.00  1.00  0.00  0.00  0.00  0.00  0.00
  WS02004406WS02004407    1.00   0.00  0.01  0.00  0.99  0.00  0.00  0.00  0.01  0.00
  WS02004407WS02004409    1.00   0.01  0.00  0.00  0.98  0.01  0.00  0.00  0.82  0.00
  WS02004409WS02004410    1.00   0.01  0.00  0.00  0.99  0.00  0.00  0.00  0.00  0.00
  WS02004410WS02004411    1.00   0.01  0.00  0.00  0.99  0.00  0.00  0.00  0.01  0.00
  WS02004411WS02004412    1.00   0.01  0.00  0.00  0.99  0.00  0.00  0.00  0.00  0.00
  WS02004412WS02004413    1.00   0.01  0.00  0.00  0.99  0.00  0.00  0.00  0.02  0.00
  WS02004413WS02003067    1.00   0.01  0.04  0.00  0.00  0.00  0.95  0.00  0.00  0.00
  WS02006109WS02006110    1.00   0.00  0.00  0.00  1.00  0.00  0.00  0.00  0.00  0.00
  WS02006110WS02006113    1.00   0.00  0.00  0.00  1.00  0.00  0.00  0.00  0.00  0.00
  WS02006111WS02006112    1.00   0.00  0.00  0.00  1.00  0.00  0.00  0.00  0.76  0.00
  WS02006112WS02006115    1.00   0.00  0.00  0.00  1.00  0.00  0.00  0.00  0.00  0.00
  WS02006113WS02006111    1.00   0.00  0.00  0.00  0.22  0.78  0.00  0.00  0.06  0.00
  WS02006115WS02006116    1.00   0.00  0.00  0.00  1.00  0.00  0.00  0.00  0.00  0.00
  WS02006116WS02004401    1.00   0.00  0.00  0.00  1.00  0.00  0.00  0.00  0.00  0.00
  WS02006228WS02006109    1.00   0.00  0.00  0.00  1.00  0.00  0.00  0.00  0.00  0.00
  WS02006229WS02006228    1.00   0.00  0.00  0.00  1.00  0.00  0.00  0.00  0.00  0.00
  WS02006230WS02006229    1.00   0.00  0.00  0.00  1.00  0.00  0.00  0.00  0.00  0.00
  WS02006231WS02006230    1.00   0.00  0.00  0.00  0.33  0.00  0.67  0.00  0.00  0.00
  WS02006232WS02006231    1.00   0.00  0.00  0.00  0.99  0.00  0.00  0.00  0.01  0.00
  WS02006234WS02006232    1.00   0.00  0.01  0.00  0.99  0.00  0.00  0.00  0.02  0.00
  WS02006235WS02006234    1.00   0.02  0.00  0.00  0.90  0.00  0.08  0.00  0.00  0.00
  WS02006238WS02006235    1.00   0.02  0.00  0.00  0.98  0.00  0.00  0.00  0.00  0.00
  WS02006239WS02006238    1.00   0.02  0.00  0.00  0.98  0.00  0.00  0.00  0.07  0.00
  WS02006240WS02006239    1.00   0.02  0.00  0.00  0.62  0.00  0.00  0.36  0.00  0.00
  WS02006242WS02006240    1.00   0.01  0.00  0.00  0.98  0.00  0.01  0.00  0.00  0.00
  WS02006243WS02006242    1.00   0.01  0.00  0.00  0.98  0.00  0.00  0.01  0.50  0.00
  WS02006245WS02006243    1.00   0.01  0.00  0.00  0.89  0.00  0.00  0.10  0.01  0.00
  WS02006247WS02006245    1.00   0.01  0.00  0.00  0.98  0.00  0.00  0.01  0.00  0.00
  WS02006248WS02006247    1.00   0.01  0.00  0.00  0.98  0.00  0.00  0.01  0.50  0.00
  WS02006249WS02006248    1.00   0.00  0.01  0.00  0.48  0.00  0.51  0.00  0.00  0.00
  WS02006251WS02006249    1.00   0.00  0.00  0.00  1.00  0.00  0.00  0.00  0.49  0.00
  WS02006252WS02006251    1.00   0.01  0.08  0.00  0.23  0.00  0.68  0.00  0.00  0.00
  WS02006253WS02006251    1.00   0.01  0.00  0.00  0.99  0.00  0.00  0.00  0.00  0.00
  WS02006256WS02006235    1.00   0.02  0.00  0.00  0.98  0.00  0.00  0.00  0.00  0.00
  WS02006280WS02006229    1.00   0.14  0.00  0.00  0.19  0.02  0.00  0.64  0.01  0.00
  WS02006284WS02006280    1.00   0.14  0.00  0.00  0.14  0.01  0.00  0.71  0.00  0.00
  WS02006287WS02006284    1.00   0.10  0.05  0.00  0.59  0.25  0.00  0.00  0.65  0.00
  WSF200WS02003060        1.00   0.00  0.06  0.00  0.65  0.29  0.00  0.00  0.53  0.00
  YS02001580YS02001583    1.00   0.22  0.55  0.00  0.23  0.00  0.00  0.00  0.64  0.00
  YS02001583YS02001586    1.00   0.41  0.31  0.00  0.28  0.00  0.00  0.00  0.64  0.00
  YS02001586YS02001590    1.00   0.13  0.00  0.00  0.45  0.04  0.00  0.38  0.35  0.00
  YS02001590YS02001593    1.00   0.13  0.01  0.00  0.16  0.00  0.71  0.00  0.00  0.00
  YS02001593YS02001596    1.00   0.13  0.00  0.00  0.18  0.01  0.00  0.68  0.02  0.00
  YS02001596YS02001600    1.00   0.13  0.00  0.00  0.23  0.01  0.00  0.62  0.04  0.00
  YS02001600YS02001601    1.00   0.13  0.01  0.00  0.86  0.00  0.00  0.00  0.58  0.00
  YS02001601YS02001602    1.00   0.13  0.01  0.00  0.87  0.00  0.00  0.00  0.00  0.00
  YS02001602YS02001605    1.00   0.13  0.00  0.00  0.87  0.00  0.00  0.00  0.00  0.00
  YS02001605YS02001607    1.00   0.13  0.00  0.00  0.87  0.00  0.00  0.00  0.00  0.00
  YS02001607YS02001610    1.00   0.13  0.00  0.00  0.86  0.00  0.00  0.00  0.01  0.00
  YS02001610YS02001613    1.00   0.13  0.00  0.00  0.87  0.00  0.00  0.00  0.00  0.00
  YS02001613YS02001616    1.00   0.13  0.00  0.00  0.87  0.00  0.00  0.00  0.00  0.00
  YS02001616YS02001619    1.00   0.13  0.00  0.00  0.87  0.00  0.00  0.00  0.00  0.00
  YS02001619YS02001622    1.00   0.13  0.00  0.00  0.87  0.00  0.00  0.00  0.28  0.00
  YS02001622YS02001625    1.00   0.13  0.00  0.00  0.87  0.00  0.00  0.00  0.03  0.00
  YS02001625YS02001629    1.00   0.13  0.04  0.00  0.23  0.00  0.60  0.00  0.00  0.00
  YS02001629YS02163301    1.00   0.14  0.01  0.00  0.85  0.00  0.00  0.00  0.00  0.00
  YS02001633YS02163601    1.00   0.00  0.01  0.00  0.99  0.00  0.00  0.00  0.14  0.00
  YS02001641YS02001644    1.00   0.00  0.01  0.00  0.99  0.00  0.00  0.00  0.00  0.00
  YS02001644YS02001647    1.00   0.00  0.16  0.00  0.84  0.00  0.00  0.00  0.00  0.00
  YS02001647YS02001649    1.00   0.00  0.16  0.00  0.66  0.18  0.00  0.00  0.55  0.00
  YS02001649YS02001757    1.00   0.00  0.00  0.00  0.92  0.08  0.00  0.00  0.68  0.00
  YS02001652YS02001649    1.00   0.00  0.00  0.00  0.97  0.03  0.00  0.00  0.66  0.00
  YS02001655YS02001652    1.00   0.00  0.00  0.00  0.28  0.01  0.00  0.71  0.05  0.00
  YS02001658YS02001655    1.00   0.00  0.14  0.00  0.75  0.11  0.00  0.00  0.61  0.00
  YS02001661YS02001658    1.00   0.14  0.00  0.00  0.55  0.32  0.00  0.00  0.68  0.00
  YS02001664YS02001661    1.00   0.13  0.00  0.00  0.72  0.15  0.00  0.00  0.85  0.00
  YS02001745YS02001748    1.00   0.00  0.00  0.00  0.16  0.02  0.00  0.83  0.13  0.00
  YS02001748YS02001751    1.00   0.00  0.00  0.00  0.89  0.11  0.00  0.00  0.69  0.00
  YS02001751YS02001754    1.00   0.00  0.00  0.00  0.26  0.01  0.00  0.73  0.04  0.00
  YS02001754YS02001757    1.00   0.00  0.00  0.00  1.00  0.00  0.00  0.00  0.72  0.00
  YS02001757CaochengTiaoxuchi    1.00   0.00  0.00  0.00  0.37  0.63  0.00  0.00  0.14  0.00
  YS02001759YS02001757    1.00   0.00  0.00  0.00  1.00  0.00  0.00  0.00  0.64  0.00
  YS02001762YS02001759    1.00   0.00  0.00  0.00  1.00  0.00  0.00  0.00  0.02  0.00
  YS02001765YS02001762    1.00   0.00  0.00  0.00  1.00  0.00  0.00  0.00  0.63  0.00
  YS02001767YS02001765    1.00   0.00  0.00  0.00  1.00  0.00  0.00  0.00  0.00  0.00
  YS02001770YS02001767    1.00   0.00  0.00  0.00  1.00  0.00  0.00  0.00  0.00  0.00
  YS02001774YS02001770    1.00   0.00  0.13  0.00  0.71  0.00  0.16  0.00  0.02  0.00
  YS02001779YS02001774    1.00   0.00  0.00  0.00  1.00  0.00  0.00  0.00  0.69  0.00
  YS02001783YS02001784    1.00   0.00  0.17  0.00  0.83  0.00  0.00  0.00  0.55  0.00
  YS02001784YS02001785    1.00   0.00  0.00  0.00  1.00  0.00  0.00  0.00  0.15  0.00
  YS02001786YS02001788    1.00   0.00  0.00  0.00  0.79  0.21  0.00  0.00  0.00  0.00
  YS02001788YS02001790    1.00   0.00  0.00  0.00  0.21  0.79  0.00  0.00  0.78  0.00
  YS02001790YS02001791    1.00   0.00  0.00  0.00  0.01  0.99  0.00  0.00  0.16  0.00
  YS02001791YS02001793    1.00   0.00  0.00  0.00  0.00  1.00  0.00  0.00  0.01  0.00
  YS02001793JiankangQianchi    1.00   0.00  0.00  0.00  0.08  0.92  0.00  0.00  0.14  0.00
  YS02001882YS02001884    1.00   0.14  0.01  0.00  0.85  0.00  0.00  0.00  0.00  0.00
  YS02001884YS02001887    1.00   0.06  0.05  0.00  0.89  0.00  0.00  0.00  0.00  0.00
  YS02001887YS02001890    1.00   0.00  0.00  0.00  0.97  0.00  0.03  0.00  0.00  0.00
  YS02001890YS02001895    1.00   0.00  0.15  0.00  0.85  0.00  0.00  0.00  0.00  0.00
  YS02001895YS02001898    1.00   0.15  0.00  0.00  0.83  0.00  0.02  0.00  0.00  0.00
  YS02001898YS02001901    1.00   0.16  0.00  0.00  0.84  0.00  0.00  0.00  0.01  0.00
  YS02001901YS02001904    1.00   0.16  0.00  0.00  0.84  0.00  0.00  0.00  0.00  0.00
  YS02001904YS02001907    1.00   0.00  0.15  0.00  0.84  0.00  0.00  0.00  0.00  0.00
  YS02001907YS02006553    1.00   0.00  0.02  0.00  0.98  0.00  0.00  0.00  0.00  0.00
  YS02001910YS02001907    1.00   0.00  0.00  0.00  0.97  0.00  0.00  0.03  0.12  0.00
  YS02001915YS02001910    1.00   0.00  0.00  0.00  0.97  0.03  0.00  0.00  0.13  0.00
  YS02001918YS02001915    1.00   0.00  0.00  0.00  0.98  0.02  0.00  0.00  0.72  0.00
  YS02001920YS02001918    1.00   0.00  0.00  0.00  1.00  0.00  0.00  0.00  0.01  0.00
  YS02001923YS02001920    1.00   0.00  0.00  0.00  1.00  0.00  0.00  0.00  0.90  0.00
  YS02001926YS02001923    1.00   0.00  0.07  0.00  0.08  0.00  0.85  0.00  0.00  0.00
  YS02001929YS02001926    1.00   0.00  0.13  0.00  0.87  0.00  0.00  0.00  0.80  0.00
  YS02006553YS02006556    1.00   0.01  0.00  0.00  0.99  0.00  0.00  0.00  0.03  0.00
  YS02006556YS02006558    1.00   0.00  0.00  0.00  1.00  0.00  0.00  0.00  0.00  0.00
  YS02006558YS02006561    1.00   0.17  0.00  0.00  0.07  0.76  0.00  0.00  0.17  0.00
  YS02006561YS02001783    1.00   0.17  0.00  0.00  0.11  0.72  0.00  0.00  0.66  0.00
  YS02163301YS02001633    1.00   0.00  0.14  0.00  0.86  0.00  0.00  0.00  0.00  0.00
  YS02163601YS02164001    1.00   0.00  0.08  0.00  0.92  0.00  0.00  0.00  0.00  0.00
  YS02164001YS02001641    1.00   0.01  0.07  0.00  0.92  0.00  0.00  0.00  0.05  0.00
  YSB1154YSB6556          1.00   0.12  0.00  0.00  0.88  0.00  0.00  0.00  0.01  0.00
  YSB1171HS02004479       1.00   0.04  0.00  0.00  0.95  0.00  0.00  0.01  0.10  0.00
  YSB1174YSB1171          1.00   0.05  0.04  0.00  0.91  0.00  0.00  0.00  0.00  0.00
  YSB6556YSB1171          1.00   0.04  0.08  0.00  0.88  0.00  0.00  0.00  0.00  0.00
  
  
  *************************
  Conduit Surcharge Summary
  *************************
  
  ----------------------------------------------------------------------------
                                                           Hours        Hours 
                         --------- Hours Full --------   Above Full   Capacity
  Conduit                Both Ends  Upstream  Dnstream   Normal Flow   Limited
  ----------------------------------------------------------------------------
  HS02004478WS02006287        0.64      0.64      0.85      0.01         0.01
  HS02004479HS02004480        0.85      0.85      0.88      0.01         0.01
  HS02004480HS02004478        0.77      0.85      0.77      1.88         0.77
  HS02004770HS02004777        0.73      0.73      0.74      0.13         0.09
  HS02004777HS02004785        0.68      0.68      0.74      0.01         0.01
  HS02004785HS02004788        0.66      0.68      0.66      1.68         0.59
  HS02004788HS02004792        0.66      0.66      0.81      0.01         0.01
  HS02004792HS02004799        0.81      0.81      0.97      0.01         0.01
  HS02004799HS02004480        0.85      0.85      0.97      1.11         0.01
  HS02004802HS02004478        0.78      0.78      0.87      0.18         0.01
  HS02004807HS02004802        0.84      0.84      0.86      0.36         0.37
  HS02004817HS02004807        0.84      0.84      1.54      0.01         0.01
  HS02004817HS02004824        0.66      0.66      1.54      0.01         0.01
  HS02004824HS02004830        0.63      0.63      0.66      0.01         0.01
  HS02004830HS02004837        0.58      0.58      0.63      0.01         0.01
  HS02004837HS02004842        0.58      0.58      0.75      0.01         0.01
  HS02004842HS02004848        0.54      0.54      0.75      0.01         0.01
  HS02004848HS02004852        0.54      0.54      0.56      0.03         0.01
  HS02004852HS02004856        0.56      0.56      0.59      0.02         0.01
  HS02004856HS02004862        0.55      0.55      0.59      0.01         0.01
  HS02004862HS02004870        0.59      0.59      0.61      0.30         0.28
  HS02004870HS02004876        0.61      0.61      0.67      0.01         0.01
  HS02004876HS02004881        0.64      0.67      0.64      1.70         0.64
  HS02004881HS02006253        0.64      0.64      1.70      0.01         0.01
  HS02004901HS02004770        0.73      0.73      0.74      0.07         0.01
  WS02003072WS02003073        0.01      0.01      0.01      3.27         0.01
  WS02004401WS02004402        1.86      1.86      1.88      1.66         1.64
  WS02004402WS02004403        1.88      1.88      1.89      1.86         1.84
  WS02004403WS02004404        1.89      1.89      1.96      0.01         0.03
  WS02004404WS02004405        1.95      1.96      1.95      3.73         1.95
  WS02004405WS02004406        1.93      1.95      1.93      2.08         1.93
  WS02004406WS02004407        0.01      0.01      1.93      0.01         0.01
  WS02004407WS02004409        0.01      0.01      1.36      0.01         0.01
  WS02004409WS02004410        1.28      1.36      1.28      1.72         1.28
  WS02004410WS02004411        1.14      1.28      1.14      1.76         1.14
  WS02004411WS02004412        1.02      1.14      1.02      1.85         1.02
  WS02004412WS02004413        1.02      1.02      1.57      0.01         0.01
  WS02004413WS02003067        0.01      0.01      1.57      0.01         0.01
  WS02006109WS02006110        2.06      2.07      2.28      2.07         0.01
  WS02006110WS02006113        1.57      1.57      2.27      0.36         0.01
  WS02006111WS02006112        1.56      1.56      2.63      0.01         0.01
  WS02006112WS02006115        1.72      1.72      2.10      0.01         0.01
  WS02006113WS02006111        1.57      1.57      1.57      1.68         1.57
  WS02006115WS02006116        1.73      1.73      1.73      1.73         1.70
  WS02006116WS02004401        1.85      1.85      1.86      1.82         1.78
  WS02006228WS02006109        2.24      2.28      2.24      3.36         2.24
  WS02006229WS02006228        2.24      2.25      2.24      2.55         2.24
  WS02006230WS02006229        2.32      2.38      2.32      4.09         0.95
  WS02006231WS02006230        1.97      1.97      2.02      3.59         1.34
  WS02006232WS02006231        2.01      2.01      2.13      0.01         0.19
  WS02006234WS02006232        2.04      2.04      2.13      0.01         0.01
  WS02006235WS02006234        2.04      2.04      2.05      3.39         1.31
  WS02006238WS02006235        2.06      2.06      2.09      0.01         0.47
  WS02006239WS02006238        2.07      2.07      2.07      1.06         0.03
  WS02006240WS02006239        2.04      2.04      2.04      1.05         0.01
  WS02006242WS02006240        2.04      2.04      2.08      1.64         1.12
  WS02006243WS02006242        2.02      2.02      2.06      0.01         0.01
  WS02006245WS02006243        1.99      1.99      2.01      0.02         0.01
  WS02006247WS02006245        1.98      1.99      1.98      3.31         0.45
  WS02006248WS02006247        1.95      1.95      1.98      0.01         0.01
  WS02006249WS02006248        1.94      1.94      1.96      1.90         0.01
  WS02006251WS02006249        1.94      1.96      1.96      1.62         1.56
  WS02006252WS02006251        1.75      1.76      1.85      0.19         0.10
  WS02006253WS02006251        1.95      1.95      1.97      1.01         0.01
  WS02006256WS02006235        3.64      3.65      7.48      0.45         0.01
  WS02006280WS02006229        1.02      1.02      1.18      0.01         0.01
  WS02006284WS02006280        0.89      0.89      1.00      0.01         0.01
  WS02006287WS02006284        0.76      0.76      0.90      0.41         0.41
  YS02001580YS02001583        0.81      0.81      0.89      0.01         0.01
  YS02001583YS02001586        0.82      0.82      0.99      0.01         0.01
  YS02001586YS02001590        1.00      1.00      1.09      0.01         0.01
  YS02001590YS02001593        1.09      1.09      1.12      1.14         0.01
  YS02001593YS02001596        1.11      1.11      1.25      0.01         0.01
  YS02001596YS02001600        1.32      1.32      1.42      0.01         0.01
  YS02001600YS02001601        1.47      1.47      1.71      0.01         0.01
  YS02001601YS02001602        1.62      1.62      1.74      1.41         0.01
  YS02001602YS02001605        1.58      1.58      1.62      2.46         0.01
  YS02001605YS02001607        1.54      1.58      1.55      1.64         1.52
  YS02001607YS02001610        1.10      1.10      1.15      0.01         0.01
  YS02001610YS02001613        1.10      1.10      1.15      0.01         0.01
  YS02001613YS02001616        1.04      1.04      1.10      0.01         0.01
  YS02001616YS02001619        1.03      1.03      1.04      0.01         0.05
  YS02001619YS02001622        1.02      1.03      1.02      1.06         0.97
  YS02001622YS02001625        1.02      1.02      1.28      0.01         0.01
  YS02001625YS02001629        0.95      0.95      1.28      0.01         0.01
  YS02001629YS02163301        1.28      1.28      1.30      0.29         0.30
  YS02001633YS02163601        1.32      1.32      1.35      0.56         0.54
  YS02001641YS02001644        1.25      1.27      1.25      1.72         1.24
  YS02001644YS02001647        0.92      0.92      1.25      0.04         0.01
  YS02001647YS02001649        0.92      0.92      1.15      0.01         0.01
  YS02001649YS02001757        1.14      1.15      1.23      0.44         0.37
  YS02001652YS02001649        0.84      0.84      1.15      0.01         0.01
  YS02001655YS02001652        0.39      0.39      0.76      0.01         0.01
  YS02001658YS02001655        0.23      0.23      0.39      0.01         0.01
  YS02001661YS02001658        0.05      0.05      0.23      0.01         0.01
  YS02001664YS02001661        0.01      0.01      0.10      0.01         0.01
  YS02001745YS02001748        0.01      0.01      0.13      0.01         0.01
  YS02001748YS02001751        0.19      0.19      0.25      0.01         0.01
  YS02001751YS02001754        0.25      0.25      0.45      0.01         0.01
  YS02001754YS02001757        0.54      0.54      1.23      0.01         0.01
  YS02001757CaochengTiaoxuchi        0.93      1.23      1.78      0.55         0.20
  YS02001759YS02001757        1.13      1.13      1.23      0.07         0.08
  YS02001762YS02001759        1.10      1.10      1.13      0.01         0.03
  YS02001765YS02001762        1.04      1.04      1.10      0.01         0.01
  YS02001767YS02001765        0.91      0.91      1.04      0.02         0.06
  YS02001770YS02001767        0.91      0.91      0.91      0.69         0.59
  YS02001774YS02001770        0.87      0.87      1.07      0.01         0.01
  YS02001779YS02001774        0.45      0.45      1.07      0.01         0.01
  YS02001783YS02001784        0.66      0.69      0.66      0.88         0.66
  YS02001784YS02001785        0.53      0.66      0.53      1.22         0.53
  YS02001786YS02001788        0.01      0.53      0.01      1.02         0.01
  YS02001790YS02001791        0.01      0.01      0.01      0.64         0.01
  YS02001793JiankangQianchi        0.01      0.01      0.43      0.01         0.01
  YS02001882YS02001884        0.62      0.62      0.63      0.01         0.01
  YS02001884YS02001887        0.66      0.66      0.68      0.01         0.01
  YS02001887YS02001890        0.70      0.70      0.71      0.16         0.01
  YS02001890YS02001895        0.61      0.61      0.73      0.01         0.01
  YS02001895YS02001898        0.60      0.60      0.61      0.01         0.01
  YS02001898YS02001901        0.61      0.61      0.66      0.01         0.01
  YS02001901YS02001904        0.65      0.65      0.66      0.01         0.01
  YS02001904YS02001907        0.65      0.65      1.00      0.01         0.01
  YS02001907YS02006553        1.23      1.23      1.32      0.01         0.01
  YS02001910YS02001907        0.73      0.73      0.97      0.01         0.01
  YS02001915YS02001910        0.62      0.62      0.73      0.01         0.01
  YS02001918YS02001915        0.52      0.52      0.62      0.01         0.01
  YS02001920YS02001918        0.52      0.52      0.53      0.01         0.01
  YS02001923YS02001920        0.47      0.47      0.53      0.01         0.01
  YS02001926YS02001923        0.17      0.17      0.20      0.01         0.01
  YS02001929YS02001926        0.01      0.01      0.20      0.01         0.01
  YS02006553YS02006556        0.85      0.85      0.99      0.01         0.01
  YS02006556YS02006558        0.91      0.91      1.02      0.01         0.01
  YS02006558YS02006561        0.55      0.83      0.55      1.15         0.55
  YS02006561YS02001783        0.48      0.48      0.69      0.01         0.01
  YS02163301YS02001633        1.30      1.30      1.34      0.01         0.01
  YS02163601YS02164001        1.27      1.27      1.35      0.12         0.01
  YS02164001YS02001641        1.27      1.27      1.27      0.95         0.88
  YSB1154YSB6556              0.92      0.92      1.15      0.01         0.01
  YSB1171HS02004479           0.80      0.80      1.15      0.01         0.01
  YSB1174YSB1171              1.02      1.02      1.48      0.01         0.01
  YSB6556YSB1171              0.92      0.92      1.59      0.01         0.01
  
  
  ***************
  Pumping Summary
  ***************
  
  ---------------------------------------------------------------------------------------------------------
                                                  Min       Avg       Max     Total     Power    % Time Off
                        Percent   Number of      Flow      Flow      Flow    Volume     Usage    Pump Curve
  Pump                 Utilized   Start-Ups       LPS       LPS       LPS  10^6 ltr     Kw-hr    Low   High
  ---------------------------------------------------------------------------------------------------------
  CC-R1                   48.96          13      0.00    617.17    683.00     7.094    124.42    0.0   63.1
  CC-R2                   77.08          11      0.00    425.96    683.00     6.008    102.94    0.0   85.5
  CC-S1                   31.25           7      0.00    195.43    200.00     1.742     11.74    0.0   27.9
  CC-S2                   54.17          14      0.00    112.60    200.00     1.002      6.93    0.0   80.4
  JK-R1                   75.00          13      0.00    160.40   1000.00     2.856      9.72    0.0    0.0
  JK-R2                   38.54          10      0.00    283.94   1000.00     3.041      8.67    0.0    0.0
  JK-S                    32.29          14      0.00    129.49    300.00     1.182     26.18    0.0    0.0
  XR-1                    97.91           1      0.00     95.00     95.00     2.679      9.64    0.0    0.0
  XR-2                    93.95           1      0.00     95.00     95.00     2.570      8.80    0.0    0.0
  XR-3                     0.00           0      0.00      0.00      0.00     0.000      0.00    0.0    0.0
  XR-4                     0.00           0      0.00      0.00      0.00     0.000      0.00    0.0    0.0
  

  Analysis begun on:  Thu Jun 15 06:46:28 2023
  Analysis ended on:  Thu Jun 15 06:46:32 2023
  Total elapsed time: 00:00:04