
  OWA STORM WATER MANAGEMENT MODEL - VERSION v5.2.3 (OWA 2023-03-28)
  ------------------------------------------------------------

  WARNING 04: minimum elevation drop used for Conduit WS02004404WS02004405
  WARNING 03: negative offset ignored for Link YS02001904YS02001907
  
  ****************
  Analysis Options
  ****************
  Flow Units ............... LPS
  Process Models:
    Rainfall/Runoff ........ YES
    RDII ................... NO
    Snowmelt ............... NO
    Groundwater ............ NO
    Flow Routing ........... YES
    Ponding Allowed ........ NO
    Water Quality .......... NO
  Infiltration Method ...... HORTON
  Flow Routing Method ...... DYNWAVE
  Surcharge Method ......... EXTRAN
  Starting Date ............ 08/28/2015 08:00:00
  Ending Date .............. 08/28/2015 16:00:00
  Antecedent Dry Days ...... 8.0
  Report Time Step ......... 00:01:00
  Wet Time Step ............ 00:01:00
  Dry Time Step ............ 00:01:00
  Routing Time Step ........ 30.00 sec
  Variable Time Step ....... YES
  Maximum Trials ........... 8
  Number of Threads ........ 1
  Head Tolerance ........... 0.001500 m
  
  
  **************************        Volume         Depth
  Runoff Quantity Continuity     hectare-m            mm
  **************************     ---------       -------
  Total Precipitation ......         3.351        55.320
  Evaporation Loss .........         0.000         0.000
  Infiltration Loss ........         0.235         3.875
  Surface Runoff ...........         3.056        50.450
  Final Storage ............         0.061         1.006
  Continuity Error (%) .....        -0.020
  
  
  **************************        Volume        Volume
  Flow Routing Continuity        hectare-m      10^6 ltr
  **************************     ---------     ---------
  Dry Weather Inflow .......         0.630         6.296
  Wet Weather Inflow .......         3.056        30.565
  Groundwater Inflow .......         0.000         0.000
  RDII Inflow ..............         0.000         0.000
  External Inflow ..........         0.105         1.045
  External Outflow .........         3.025        30.250
  Flooding Loss ............         1.191        11.914
  Evaporation Loss .........         0.000         0.000
  Exfiltration Loss ........         0.000         0.000
  Initial Stored Volume ....         0.303         3.031
  Final Stored Volume ......         0.173         1.731
  Continuity Error (%) .....        -7.227
  
  
  *************************
  Highest Continuity Errors
  *************************
  Node JK-storage (-57.07%)
  Node YS02001583 (-9.73%)
  Node YS02001884 (5.03%)
  Node CC-storage (-4.09%)
  Node HS02004842 (1.55%)
  
  
  ***************************
  Time-Step Critical Elements
  ***************************
  Link WS02006252WS02006251 (71.08%)
  Link YS02001793JiankangQianchi (11.15%)
  Link WS02006280WS02006229 (7.59%)
  Link WS02006238WS02006235 (2.39%)
  Link YS02001791YS02001793 (1.17%)
  
  
  ********************************
  Highest Flow Instability Indexes
  ********************************
  Link WS02006113WS02006111 (25)
  Link WS02006111WS02006112 (19)
  Link WS02006238WS02006235 (13)
  Link WS02004404WS02004405 (13)
  Link WS02006252WS02006251 (12)
  
  
  *********************************
  Most Frequent Nonconverging Nodes
  *********************************
  Node CC-1 (6.51%)
  Node CC-2 (6.51%)
  Node JK-1 (6.51%)
  Node JK-2 (6.51%)
  Node WSC (6.51%)
  
  
  *************************
  Routing Time Step Summary
  *************************
  Minimum Time Step           :     0.00 sec
  Average Time Step           :     1.51 sec
  Maximum Time Step           :    30.00 sec
  % of Time in Steady State   :     0.00
  Average Iterations per Step :     2.75
  % of Steps Not Converging   :     6.51
  Time Step Frequencies       :
     30.000 - 13.228 sec      :     0.01 %
     13.228 -  5.833 sec      :     0.12 %
      5.833 -  2.572 sec      :    15.36 %
      2.572 -  1.134 sec      :    37.36 %
      1.134 -  0.500 sec      :    47.15 %
  
  
  ***************************
  Subcatchment Runoff Summary
  ***************************
  
  ------------------------------------------------------------------------------------------------------------------------------
                            Total      Total      Total      Total     Imperv       Perv      Total       Total     Peak  Runoff
                           Precip      Runon       Evap      Infil     Runoff     Runoff     Runoff      Runoff   Runoff   Coeff
  Subcatchment                 mm         mm         mm         mm         mm         mm         mm    10^6 ltr      LPS
  ------------------------------------------------------------------------------------------------------------------------------
  sub0                      55.32       0.00       0.00       1.00      50.20       2.88      53.08        0.04    28.43   0.959
  sub1                      55.32       0.00       0.00       1.68      47.99       4.40      52.39        0.35   190.50   0.947
  sub10                     55.32       0.00       0.00       1.19      49.61       3.24      52.85        0.58   326.50   0.955
  sub11                     55.32       0.00       0.00       1.17      49.63       3.25      52.88        0.61   362.02   0.956
  sub12                     55.32       0.00       0.00       1.91      46.95       5.29      52.24        0.46   292.43   0.944
  sub14                     55.32       0.00       0.00       1.34      49.08       3.64      52.73        0.50   289.01   0.953
  sub15                     55.32       0.00       0.00       5.17      37.75      11.43      49.19        0.85   432.35   0.889
  sub16                     55.32       0.00       0.00       5.36      36.15      12.90      49.05        0.51   289.97   0.887
  sub17                     55.32       0.00       0.00       5.23      36.69      12.48      49.17        0.42   236.05   0.889
  sub2                      55.32       0.00       0.00       7.32      33.95      13.15      47.10        0.44   188.67   0.851
  sub22                     55.32       0.00       0.00       7.80      30.75      15.99      46.74        2.95  1417.13   0.845
  sub23                     55.32       0.00       0.00       6.38      33.99      14.09      48.08        2.29  1185.18   0.869
  sub3                      55.32       0.00       0.00       7.92      33.91      12.55      46.45        1.05   407.15   0.840
  sub4                      55.32       0.00       0.00       1.86      47.82       4.23      52.05        1.09   456.18   0.941
  sub5                      55.32       0.00       0.00       1.04      50.14       2.84      52.98        0.60   329.93   0.958
  sub60                     55.32       0.00       0.00       1.79      47.48       4.85      52.32        0.69   409.07   0.946
  sub61                     55.32       0.00       0.00       2.59      44.78       6.81      51.60        0.95   564.50   0.933
  sub62                     55.32       0.00       0.00       1.19      49.61       3.23      52.84        1.45   799.38   0.955
  sub63                     55.32       0.00       0.00       4.76      38.31      11.29      49.60        1.13   622.27   0.897
  sub64                     55.32       0.00       0.00       2.41      45.81       5.89      51.71        1.24   642.59   0.935
  sub65                     55.32       0.00       0.00       2.08      46.87       5.11      51.98        1.43   718.51   0.940
  sub66                     55.32       0.00       0.00       5.82      38.20      10.23      48.43        2.26   918.24   0.875
  sub67                     55.32       0.00       0.00       1.15      49.65       3.27      52.92        0.98   623.20   0.957
  sub68                     55.32       0.00       0.00       2.15      46.39       5.60      51.99        1.43   816.84   0.940
  sub69                     55.32       0.00       0.00       1.89      46.91       6.41      53.32        1.97   962.21   0.964
  sub7                      55.32       0.00       0.00       1.32      49.10       3.66      52.76        0.18   107.45   0.954
  sub70                     55.32       0.00       0.00       6.22      36.35      12.59      48.94        1.41   520.38   0.885
  sub71                     55.32       0.00       0.00       1.22      49.57       3.20      52.77        1.38   699.77   0.954
  sub72                     55.32       0.00       0.00       1.09      50.05       2.79      52.83        0.73   336.08   0.955
  sub8                      55.32       0.00       0.00       1.33      49.09       3.65      52.74        0.34   196.54   0.953
  sub9                      55.32       0.00       0.00       1.33      49.08       3.65      52.73        0.25   146.90   0.953
  
  
  ******************
  Node Depth Summary
  ******************
  
  ---------------------------------------------------------------------------------
                                 Average  Maximum  Maximum  Time of Max    Reported
                                   Depth    Depth      HGL   Occurrence   Max Depth
  Node                 Type       Meters   Meters   Meters  days hr:min      Meters
  ---------------------------------------------------------------------------------
  HS02004478           JUNCTION     0.20     1.57    10.80     0  01:48        1.56
  HS02004479           JUNCTION     0.27     1.74    10.94     0  01:46        1.66
  HS02004480           JUNCTION     0.24     1.70    10.94     0  01:46        1.62
  HS02004770           JUNCTION     0.24     1.42    11.25     0  01:46        1.42
  HS02004777           JUNCTION     0.27     1.48    11.28     0  01:46        1.46
  HS02004785           JUNCTION     0.17     1.49    11.39     0  01:46        1.33
  HS02004788           JUNCTION     0.14     1.42    11.32     0  01:46        1.35
  HS02004792           JUNCTION     0.19     1.60    11.12     0  01:46        1.60
  HS02004799           JUNCTION     0.29     1.76    10.97     0  01:46        1.76
  HS02004802           JUNCTION     0.30     1.79    10.92     0  01:48        1.77
  HS02004807           JUNCTION     0.27     1.92    11.09     0  01:48        1.80
  HS02004817           JUNCTION     0.57     2.39    11.24     0  01:48        2.16
  HS02004824           JUNCTION     0.15     1.97    11.37     0  01:48        1.65
  HS02004830           JUNCTION     0.15     1.98    11.45     0  01:48        1.60
  HS02004837           JUNCTION     0.12     2.04    11.62     0  01:47        1.48
  HS02004842           JUNCTION     0.41     2.22    11.49     0  01:48        1.83
  HS02004848           JUNCTION     0.10     2.00    11.60     0  01:48        1.48
  HS02004852           JUNCTION     0.11     2.05    11.56     0  01:48        1.50
  HS02004856           JUNCTION     0.17     2.07    11.49     0  01:48        1.55
  HS02004862           JUNCTION     0.12     2.00    11.38     0  01:48        1.53
  HS02004870           JUNCTION     0.11     2.10    11.39     0  01:48        1.54
  HS02004876           JUNCTION     0.16     2.26    11.29     0  01:48        1.67
  HS02004881           JUNCTION     0.10     2.15    11.18     0  01:48        1.49
  HS02004901           JUNCTION     0.25     1.42    11.24     0  01:46        1.42
  WS02001211           JUNCTION     0.63     0.81     5.65     0  01:53        0.81
  WS02001212           JUNCTION     0.37     0.57     5.63     0  01:54        0.57
  WS02001213           JUNCTION     0.58     0.87     5.63     0  01:52        0.86
  WS02003059           JUNCTION     0.65     0.94     5.62     0  01:52        0.93
  WS02003060           JUNCTION     0.37     0.68     5.61     0  01:53        0.68
  WS02003066           JUNCTION     0.23     0.45     6.01     0  01:51        0.45
  WS02003067           JUNCTION     0.54     0.89     6.21     0  01:50        0.89
  WS02003069           JUNCTION     0.42     0.77     5.36     0  01:54        0.77
  WS02003072           JUNCTION     0.48     0.81     5.18     0  01:54        0.81
  WS02003073           JUNCTION     0.29     0.51     4.58     0  01:55        0.51
  WS02004138           JUNCTION     0.13     0.14     7.39     0  00:32        0.14
  WS02004139           JUNCTION     0.56     0.74     5.65     0  01:54        0.74
  WS02004401           JUNCTION     0.75     2.66     8.66     0  01:43        2.66
  WS02004402           JUNCTION     0.77     2.52     8.48     0  01:43        2.52
  WS02004403           JUNCTION     0.78     2.41     8.34     0  01:43        2.41
  WS02004404           JUNCTION     0.85     2.21     8.06     0  01:43        2.17
  WS02004405           JUNCTION     0.84     2.35     8.20     0  01:43        2.35
  WS02004406           JUNCTION     0.84     2.47     8.30     0  01:43        2.47
  WS02004407           JUNCTION     0.25     0.89     7.20     0  01:50        0.89
  WS02004409           JUNCTION     0.52     1.43     7.20     0  01:53        1.43
  WS02004410           JUNCTION     0.53     1.29     7.01     0  01:53        1.27
  WS02004411           JUNCTION     0.53     1.20     6.88     0  01:53        1.19
  WS02004412           JUNCTION     0.54     1.10     6.74     0  01:53        1.09
  WS02004413           JUNCTION     0.68     1.15     6.62     0  01:53        1.14
  WS02006109           JUNCTION     0.93     2.64     9.26     0  01:43        2.64
  WS02006110           JUNCTION     0.88     2.57     9.16     0  01:43        2.45
  WS02006111           JUNCTION     0.38     1.87     8.57     0  01:43        1.70
  WS02006112           JUNCTION     0.95     2.68     8.56     0  00:00        2.32
  WS02006113           JUNCTION     0.46     2.07     8.96     0  01:43        1.79
  WS02006115           JUNCTION     0.66     2.46     8.60     0  01:43        2.46
  WS02006116           JUNCTION     0.74     2.98     9.02     0  01:43        2.98
  WS02006228           JUNCTION     0.97     3.03     9.68     0  01:46        3.01
  WS02006229           JUNCTION     0.97     3.25     9.94     0  01:46        3.20
  WS02006230           JUNCTION     0.90     2.65     9.39     0  01:44        2.65
  WS02006231           JUNCTION     0.64     2.20     9.32     0  02:01        2.20
  WS02006232           JUNCTION     0.74     2.18     9.22     0  01:44        2.18
  WS02006234           JUNCTION     0.62     1.96     9.12     0  01:43        1.96
  WS02006235           JUNCTION     0.64     1.97     9.14     0  01:53        1.97
  WS02006238           JUNCTION     0.66     1.99     9.13     0  01:43        1.93
  WS02006239           JUNCTION     0.61     1.85     9.06     0  01:37        1.78
  WS02006240           JUNCTION     0.56     2.10     9.39     0  01:37        2.10
  WS02006242           JUNCTION     0.60     1.55     8.82     0  01:37        1.55
  WS02006243           JUNCTION     0.49     1.48     8.90     0  01:37        1.40
  WS02006245           JUNCTION     0.48     1.56     9.05     0  01:38        1.44
  WS02006247           JUNCTION     0.49     1.47     8.97     0  01:38        1.47
  WS02006248           JUNCTION     0.43     1.10     8.69     0  01:38        1.10
  WS02006249           JUNCTION     0.46     1.09     8.69     0  01:38        1.09
  WS02006251           JUNCTION     0.52     2.21     9.88     0  01:48        2.14
  WS02006252           JUNCTION     0.38     1.50     9.74     0  01:39        1.50
  WS02006253           JUNCTION     0.59     3.52    11.16     0  01:48        2.81
  WS02006256           JUNCTION     0.94     2.35     9.28     0  00:11        2.35
  WS02006280           JUNCTION     0.26     1.78    10.05     0  01:46        1.73
  WS02006284           JUNCTION     0.52     1.94    10.34     0  01:50        1.94
  WS02006287           JUNCTION     0.26     1.79    10.75     0  01:53        1.79
  WSF200               JUNCTION     0.22     0.52     5.75     0  01:53        0.51
  YS02001580           JUNCTION     0.07     1.05     9.59     0  01:46        0.77
  YS02001583           JUNCTION     0.10     1.14     9.64     0  01:46        0.88
  YS02001586           JUNCTION     0.17     1.13     9.30     0  01:46        1.13
  YS02001590           JUNCTION     0.26     1.40     9.26     0  01:44        1.40
  YS02001593           JUNCTION     0.19     1.32     9.19     0  01:46        1.30
  YS02001596           JUNCTION     0.26     1.75     9.17     0  01:53        1.75
  YS02001600           JUNCTION     0.31     1.87     9.00     0  01:43        1.87
  YS02001601           JUNCTION     0.50     2.06     8.90     0  01:43        2.06
  YS02001602           JUNCTION     0.42     1.87     8.77     0  01:43        1.87
  YS02001605           JUNCTION     0.39     1.78     8.68     0  01:43        1.78
  YS02001607           JUNCTION     0.38     1.68     8.53     0  01:53        1.64
  YS02001610           JUNCTION     0.43     1.68     8.48     0  01:46        1.68
  YS02001613           JUNCTION     0.39     1.69     8.53     0  01:46        1.65
  YS02001616           JUNCTION     0.32     1.61     8.52     0  01:46        1.61
  YS02001619           JUNCTION     0.30     1.61     8.54     0  01:46        1.61
  YS02001622           JUNCTION     0.28     1.62     8.52     0  01:46        1.58
  YS02001625           JUNCTION     0.54     1.78     8.38     0  01:46        1.78
  YS02001629           JUNCTION     0.39     1.85     8.40     0  01:46        1.85
  YS02001633           JUNCTION     0.47     2.05     8.50     0  01:49        2.05
  YS02001641           JUNCTION     0.45     2.10     8.54     0  01:53        2.10
  YS02001644           JUNCTION     0.45     1.92     8.35     0  01:49        1.92
  YS02001647           JUNCTION     0.23     1.90     8.51     0  01:50        1.90
  YS02001649           JUNCTION     0.26     2.05     8.44     0  01:49        2.05
  YS02001652           JUNCTION     0.16     2.16     8.76     0  01:49        2.16
  YS02001655           JUNCTION     0.11     2.16     9.01     0  01:49        1.90
  YS02001658           JUNCTION     0.08     2.30     9.44     0  01:49        1.28
  YS02001661           JUNCTION     0.13     1.88     9.28     0  01:50        1.06
  YS02001664           JUNCTION     0.05     0.65     8.58     0  01:50        0.50
  YS02001745           JUNCTION     0.05     0.95     8.47     0  01:50        0.85
  YS02001748           JUNCTION     0.07     2.27     9.35     0  01:49        1.21
  YS02001751           JUNCTION     0.09     2.20     9.08     0  01:50        2.20
  YS02001754           JUNCTION     0.13     2.20     8.81     0  01:50        2.20
  YS02001757           JUNCTION     0.29     2.21     8.47     0  01:50        2.21
  YS02001759           JUNCTION     0.22     2.21     8.57     0  01:50        2.21
  YS02001762           JUNCTION     0.22     2.15     8.55     0  01:50        2.15
  YS02001765           JUNCTION     0.20     2.10     8.55     0  01:50        2.10
  YS02001767           JUNCTION     0.20     2.03     8.52     0  01:50        2.03
  YS02001770           JUNCTION     0.21     1.95     8.45     0  01:48        1.95
  YS02001774           JUNCTION     0.27     2.00     8.42     0  01:50        1.99
  YS02001779           JUNCTION     0.11     1.68     8.37     0  01:48        1.68
  YS02001783           JUNCTION     0.21     1.43     7.57     0  01:48        1.22
  YS02001784           JUNCTION     0.23     1.23     7.29     0  01:48        1.15
  YS02001786           JUNCTION     0.20     0.97     7.00     0  01:48        0.87
  YS02001788           JUNCTION     0.14     0.62     6.60     0  01:54        0.62
  YS02001790           JUNCTION     0.17     0.72     6.37     0  01:49        0.72
  YS02001791           JUNCTION     0.10     0.44     5.91     0  01:50        0.43
  YS02001793           JUNCTION     0.06     0.25     5.09     0  01:50        0.25
  YS02001882           JUNCTION     0.27     1.83     8.55     0  01:47        1.63
  YS02001884           JUNCTION     0.36     1.93     8.55     0  01:47        1.72
  YS02001887           JUNCTION     0.44     1.92     8.46     0  01:47        1.80
  YS02001890           JUNCTION     0.47     1.81     8.32     0  01:47        1.81
  YS02001895           JUNCTION     0.25     1.58     8.32     0  01:48        1.57
  YS02001898           JUNCTION     0.25     1.64     8.38     0  01:53        1.64
  YS02001901           JUNCTION     0.36     1.69     8.30     0  01:48        1.68
  YS02001904           JUNCTION     0.34     1.65     8.28     0  01:48        1.63
  YS02001907           JUNCTION     0.65     1.96     8.25     0  01:48        1.96
  YS02001910           JUNCTION     0.46     2.01     8.52     0  01:48        1.95
  YS02001915           JUNCTION     0.27     1.98     8.70     0  01:47        1.89
  YS02001918           JUNCTION     0.14     1.81     8.88     0  01:48        1.81
  YS02001920           JUNCTION     0.22     2.10     9.11     0  01:48        2.00
  YS02001923           JUNCTION     0.11     2.03     9.29     0  01:48        1.87
  YS02001926           JUNCTION     0.15     1.90     9.35     0  01:48        1.77
  YS02001929           JUNCTION     0.08     1.78     9.47     0  01:48        1.55
  YS02006553           JUNCTION     0.66     2.02     8.31     0  01:48        1.98
  YS02006556           JUNCTION     0.63     2.05     8.36     0  01:48        1.93
  YS02006558           JUNCTION     0.67     2.11     8.37     0  01:48        1.99
  YS02006561           JUNCTION     0.13     1.12     7.78     0  01:48        0.88
  YS02163301           JUNCTION     0.42     1.94     8.45     0  01:49        1.92
  YS02163601           JUNCTION     0.51     2.06     8.46     0  01:49        2.04
  YS02164001           JUNCTION     0.44     1.96     8.42     0  01:49        1.95
  YSB1154              JUNCTION     0.40     1.97    11.03     0  01:46        1.95
  YSB1171              JUNCTION     0.55     1.95    10.85     0  01:46        1.95
  YSB1174              JUNCTION     0.36     1.82    10.93     0  01:46        1.79
  YSB6556              JUNCTION     0.30     1.80    10.97     0  01:46        1.76
  CC-1                 OUTFALL      0.00     0.00     0.00     0  00:00        0.00
  CC-2                 OUTFALL      0.00     0.00     0.00     0  00:00        0.00
  JK-1                 OUTFALL      0.00     0.00     0.00     0  00:00        0.00
  JK-2                 OUTFALL      0.00     0.00     0.00     0  00:00        0.00
  WSC                  OUTFALL      0.29     0.51     1.18     0  01:56        0.51
  CC-storage           STORAGE      0.43     1.34     6.84     0  02:55        1.34
  JK-storage           STORAGE      0.07     3.00     3.80     0  00:05        3.00
  XR-storage           STORAGE      7.87     9.26     7.26     0  08:00        9.26
  
  
  *******************
  Node Inflow Summary
  *******************
  
  -------------------------------------------------------------------------------------------------
                                  Maximum  Maximum                  Lateral       Total        Flow
                                  Lateral    Total  Time of Max      Inflow      Inflow     Balance
                                   Inflow   Inflow   Occurrence      Volume      Volume       Error
  Node                 Type           LPS      LPS  days hr:min    10^6 ltr    10^6 ltr     Percent
  -------------------------------------------------------------------------------------------------
  HS02004478           JUNCTION      0.00  2273.99     0  01:51           0        8.24      -0.008
  HS02004479           JUNCTION      0.00   519.95     0  01:48           0       0.793       0.090
  HS02004480           JUNCTION      0.00  2168.93     0  01:47           0        6.28       0.029
  HS02004770           JUNCTION   1185.18  1185.18     0  01:51        2.29        2.54       0.097
  HS02004777           JUNCTION      0.03   790.39     0  01:45    0.000864        1.88       0.259
  HS02004785           JUNCTION      0.15   808.39     0  01:45     0.00432        1.88       0.013
  HS02004788           JUNCTION    434.02   904.34     0  01:46       0.894        2.77      -0.019
  HS02004792           JUNCTION   1417.41  2166.28     0  01:51        2.96        5.73      -0.002
  HS02004799           JUNCTION    289.01  1758.40     0  01:46       0.502        5.54       0.047
  HS02004802           JUNCTION      0.00   954.77     0  01:52           0        1.98       0.190
  HS02004807           JUNCTION    362.02   954.54     0  01:52       0.615        2.03       0.186
  HS02004817           JUNCTION      0.60   604.28     0  01:52      0.0173        1.47       1.106
  HS02004824           JUNCTION    456.23   717.76     0  01:46        1.09        1.69       0.031
  HS02004830           JUNCTION      0.15   716.83     0  01:46     0.00432       0.836       0.166
  HS02004837           JUNCTION    332.85   947.78     0  01:46       0.766        1.21       0.054
  HS02004842           JUNCTION      0.00   926.30     0  01:47           0        0.82       1.576
  HS02004848           JUNCTION    407.15  1163.15     0  01:47        1.05         1.7      -0.000
  HS02004852           JUNCTION      0.00  1156.13     0  01:48           0        1.54       0.008
  HS02004856           JUNCTION    146.90  1287.69     0  01:48       0.254         1.8       0.077
  HS02004862           JUNCTION    188.87  1381.35     0  01:48       0.445        2.24       0.002
  HS02004870           JUNCTION    196.54  1564.88     0  01:48       0.337        2.57      -0.025
  HS02004876           JUNCTION    190.50  1424.12     0  01:48       0.348        2.92       0.005
  HS02004881           JUNCTION    107.45  1527.10     0  01:48       0.178         3.1      -0.012
  HS02004901           JUNCTION    289.97   517.04     0  01:53       0.514       0.771       0.196
  WS02001211           JUNCTION      7.35   227.78     0  01:46       0.212        5.44       0.611
  WS02001212           JUNCTION      0.00   206.15     0  02:55           0        5.41       0.291
  WS02001213           JUNCTION      0.00   209.08     0  03:19           0        5.39       0.332
  WS02003059           JUNCTION      0.00   213.39     0  03:20           0        5.39       0.596
  WS02003060           JUNCTION     16.53  1493.36     0  01:53       0.476        14.5       0.104
  WS02003066           JUNCTION      0.00  1282.40     0  01:51           0        8.64       0.017
  WS02003067           JUNCTION      0.00  1280.69     0  01:51           0        8.64       0.051
  WS02003069           JUNCTION      0.32  1488.88     0  01:53     0.00922        14.4       0.108
  WS02003072           JUNCTION      0.00  1487.58     0  01:54           0        14.4       0.146
  WS02003073           JUNCTION      1.82  1489.05     0  01:54      0.0524        14.5       0.150
  WS02004138           JUNCTION      0.00   190.00     0  00:29           0        5.25       0.054
  WS02004139           JUNCTION      0.32   190.32     0  00:32     0.00924        5.26       0.507
  WS02004401           JUNCTION      0.00  1280.57     0  01:50           0        8.75       0.129
  WS02004402           JUNCTION      0.00  1280.83     0  01:50           0        8.75       0.126
  WS02004403           JUNCTION      0.00  1280.80     0  01:50           0        8.74       0.122
  WS02004404           JUNCTION      0.16  1281.50     0  01:50     0.00467        8.73       0.098
  WS02004405           JUNCTION      0.04  1281.23     0  01:50      0.0011        8.72       0.144
  WS02004406           JUNCTION      0.00  1281.24     0  01:50           0        8.71       0.249
  WS02004407           JUNCTION      0.00  1288.25     0  01:43           0        8.68       0.018
  WS02004409           JUNCTION      0.00  1281.47     0  01:53           0        8.68       0.034
  WS02004410           JUNCTION      0.00  1281.71     0  01:53           0        8.68       0.055
  WS02004411           JUNCTION      0.00  1280.79     0  01:51           0        8.67       0.071
  WS02004412           JUNCTION      0.00  1280.76     0  01:51           0        8.67       0.095
  WS02004413           JUNCTION      0.00  1280.69     0  01:51           0        8.66       0.161
  WS02006109           JUNCTION      1.23  1308.01     0  00:00      0.0354        8.51       0.136
  WS02006110           JUNCTION      0.00  1121.64     0  02:08           0        8.29      -0.422
  WS02006111           JUNCTION      0.00  1176.04     0  00:00           0        8.32      -0.455
  WS02006112           JUNCTION    236.05  2307.30     0  00:00       0.422        8.78      -0.002
  WS02006113           JUNCTION      0.00  1121.50     0  02:08           0        8.28      -0.546
  WS02006115           JUNCTION      0.00  2152.75     0  00:00           0        8.76       0.048
  WS02006116           JUNCTION      0.00  1280.65     0  01:50           0        8.75       0.023
  WS02006228           JUNCTION      0.00  1272.92     0  01:51           0        8.45       0.074
  WS02006229           JUNCTION      0.00  2275.11     0  01:51           0        10.5       0.090
  WS02006230           JUNCTION     10.28  1011.44     0  01:51       0.296        4.45       0.134
  WS02006231           JUNCTION      0.00   453.23     0  01:48           0        3.33      -0.148
  WS02006232           JUNCTION      0.00   453.29     0  01:48           0        3.33       0.151
  WS02006234           JUNCTION      0.00   453.09     0  01:48           0        3.33      -0.086
  WS02006235           JUNCTION      0.00   431.70     0  03:30           0        3.34       0.131
  WS02006238           JUNCTION      0.00   415.80     0  02:11           0        2.92      -0.104
  WS02006239           JUNCTION      0.00   415.15     0  02:11           0        2.92      -0.123
  WS02006240           JUNCTION      0.00   414.85     0  02:11           0        2.91       0.038
  WS02006242           JUNCTION      0.00   414.89     0  02:11           0        2.92       0.073
  WS02006243           JUNCTION      0.00   296.90     0  01:37           0        2.57       0.091
  WS02006245           JUNCTION      0.00   295.68     0  01:37           0        2.57       0.263
  WS02006247           JUNCTION      0.00   322.53     0  01:37           0        2.58       0.045
  WS02006248           JUNCTION      0.00   348.64     0  01:44           0        2.84      -0.009
  WS02006249           JUNCTION      0.00  1339.46     0  01:48           0        5.28       0.106
  WS02006251           JUNCTION      0.08  1559.64     0  01:48     0.00222        5.33       0.013
  WS02006252           JUNCTION      0.00   423.01     0  01:48           0        2.32      -0.382
  WS02006253           JUNCTION     28.43  1557.66     0  01:48       0.043        3.16      -0.014
  WS02006256           JUNCTION      0.00   300.00     0  01:40           0        1.28      -0.001
  WS02006280           JUNCTION      0.00  2274.19     0  01:51           0        8.22       0.013
  WS02006284           JUNCTION      0.10  2273.60     0  01:51     0.00275        8.22      -0.009
  WS02006287           JUNCTION      0.00  2274.82     0  01:51           0        8.22       0.008
  WSF200               JUNCTION      0.00  1282.36     0  01:51           0        8.64       0.009
  YS02001580           JUNCTION      0.00   131.05     0  01:46           0     0.00432       1.107
  YS02001583           JUNCTION      0.00   219.05     0  01:46           0       0.015      -8.869
  YS02001586           JUNCTION    520.38   520.38     0  01:54        1.41        1.43       0.114
  YS02001590           JUNCTION      0.00   317.90     0  02:09           0        1.24      -0.047
  YS02001593           JUNCTION      0.00   317.92     0  02:08           0        1.24       0.008
  YS02001596           JUNCTION      0.00   317.96     0  02:02           0        1.24      -0.004
  YS02001600           JUNCTION      0.00   318.03     0  01:53           0        1.24      -0.005
  YS02001601           JUNCTION    962.21  1279.72     0  01:52        1.97        3.22       0.022
  YS02001602           JUNCTION      0.00   552.19     0  01:45           0        2.23       0.016
  YS02001605           JUNCTION      0.00   552.35     0  01:45           0        2.15       0.017
  YS02001607           JUNCTION      0.00   552.53     0  01:45           0        2.15       0.089
  YS02001610           JUNCTION      0.00   545.24     0  01:45           0        2.17       0.102
  YS02001613           JUNCTION      0.00   552.98     0  01:45           0        1.86       0.084
  YS02001616           JUNCTION      0.00   564.23     0  01:45           0        1.86       0.026
  YS02001619           JUNCTION    918.24   954.93     0  01:46        2.26        4.09      -0.002
  YS02001622           JUNCTION      0.00   948.28     0  01:46           0        4.06      -0.011
  YS02001625           JUNCTION      0.00  1049.59     0  01:53           0        4.09       0.216
  YS02001629           JUNCTION      0.00   949.67     0  01:46           0        3.59       0.014
  YS02001633           JUNCTION    718.71  1434.32     0  01:47        1.44        4.97       0.068
  YS02001641           JUNCTION      0.00  1433.11     0  01:47           0        4.93       0.055
  YS02001644           JUNCTION    642.63  1899.62     0  01:47        1.24        6.17       0.054
  YS02001647           JUNCTION      0.00  1899.64     0  01:47           0         6.1       0.004
  YS02001649           JUNCTION      0.00  2179.94     0  01:47           0        7.23       0.006
  YS02001652           JUNCTION      0.00   802.49     0  01:51           0        1.13      -0.132
  YS02001655           JUNCTION      0.15   802.48     0  01:51     0.00443        1.13       0.059
  YS02001658           JUNCTION      0.00   801.51     0  01:51           0        1.13      -0.099
  YS02001661           JUNCTION      0.00   783.34     0  01:50           0        1.13       0.029
  YS02001664           JUNCTION    622.27   622.27     0  01:51        1.13        1.13      -0.004
  YS02001745           JUNCTION    409.07   605.10     0  01:49       0.688       0.689       0.172
  YS02001748           JUNCTION      0.04   654.82     0  01:49      0.0013       0.691      -0.346
  YS02001751           JUNCTION      0.01   562.44     0  01:50    0.000317       0.699       0.120
  YS02001754           JUNCTION      0.26   562.98     0  01:50     0.00749       0.713      -0.198
  YS02001757           JUNCTION      0.00  3332.62     0  01:50           0        10.3       0.038
  YS02001759           JUNCTION    564.54  1342.65     0  01:49       0.948         2.4       0.001
  YS02001762           JUNCTION      0.00   787.07     0  01:52           0        1.45      -0.003
  YS02001765           JUNCTION      0.00   786.55     0  01:52           0        1.45       0.006
  YS02001767           JUNCTION      0.54   786.18     0  01:52      0.0154        1.45      -0.006
  YS02001770           JUNCTION    799.53   799.53     0  01:51        1.45         1.5      -0.014
  YS02001774           JUNCTION      0.00   491.10     0  01:48           0       0.083       1.380
  YS02001779           JUNCTION      0.01   495.81     0  01:48    0.000144       0.035      -1.934
  YS02001783           JUNCTION      0.00  1157.85     0  01:49           0        3.82       0.004
  YS02001784           JUNCTION      1.06  1158.88     0  01:49      0.0305        3.85       0.013
  YS02001786           JUNCTION      0.06  1158.80     0  01:49     0.00162        3.86       0.015
  YS02001788           JUNCTION      0.07  1159.76     0  01:49     0.00204        3.86       0.008
  YS02001790           JUNCTION      0.15  1171.70     0  01:53     0.00446        3.86       0.012
  YS02001791           JUNCTION      0.00  1288.86     0  01:50           0        3.86      -0.012
  YS02001793           JUNCTION      0.00  1241.97     0  01:50           0        3.86       0.006
  YS02001882           JUNCTION      0.00    64.63     0  01:46           0      0.0127       4.258
  YS02001884           JUNCTION      0.00   120.87     0  01:46           0      0.0485       5.295
  YS02001887           JUNCTION    623.65   623.65     0  01:50       0.997        1.03       0.423
  YS02001890           JUNCTION      0.00   623.69     0  01:50           0        0.99       0.496
  YS02001895           JUNCTION      0.00   529.03     0  01:47           0       0.961       0.183
  YS02001898           JUNCTION      0.00   530.31     0  01:47           0        0.96       0.010
  YS02001901           JUNCTION      0.00   532.41     0  01:47           0       0.962       0.335
  YS02001904           JUNCTION      0.00   533.55     0  01:47           0       0.967       0.272
  YS02001907           JUNCTION      0.00  1606.90     0  01:49           0        3.15       0.558
  YS02001910           JUNCTION      0.00  1092.78     0  01:49           0        2.18       0.319
  YS02001915           JUNCTION    699.79  1092.90     0  01:49        1.38        2.24       0.069
  YS02001918           JUNCTION      0.00   556.63     0  01:47           0        0.89       0.025
  YS02001920           JUNCTION      2.87   538.18     0  01:48      0.0827       0.869       0.100
  YS02001923           JUNCTION      0.04   619.50     0  01:47     0.00109       0.769      -0.047
  YS02001926           JUNCTION      0.05   924.49     0  01:48      0.0015       0.749      -0.136
  YS02001929           JUNCTION    336.08   766.20     0  01:48       0.727       0.732      -0.065
  YS02006553           JUNCTION      0.00   792.97     0  02:07           0        2.42       0.477
  YS02006556           JUNCTION      0.00   793.12     0  02:07           0        2.43       0.323
  YS02006558           JUNCTION    817.72  1164.98     0  01:48        1.46        3.86       0.092
  YS02006561           JUNCTION      0.00  1163.51     0  01:48           0        3.82      -0.002
  YS02163301           JUNCTION      0.00   941.11     0  02:10           0        3.58       0.041
  YS02163601           JUNCTION      0.11  1433.99     0  01:47     0.00317        4.93       0.097
  YS02164001           JUNCTION      0.00  1433.21     0  01:47           0        4.92       0.048
  YSB1154              JUNCTION    329.93   329.93     0  01:51         0.6       0.601       0.237
  YSB1171              JUNCTION      0.00   616.94     0  01:50           0        1.07       0.586
  YSB1174              JUNCTION    292.43   292.43     0  01:50       0.457       0.457       0.270
  YSB6556              JUNCTION      0.00   329.95     0  01:51           0       0.602       0.189
  CC-1                 OUTFALL       0.00   683.00     0  00:05           0        5.78       0.000
  CC-2                 OUTFALL       0.00   683.00     0  00:05           0           5       0.000
  JK-1                 OUTFALL       0.00  1000.00     0  00:05           0        2.49       0.000
  JK-2                 OUTFALL       0.00  1000.00     0  01:40           0        2.53       0.000
  WSC                  OUTFALL       0.00  1488.60     0  01:56           0        14.4       0.000
  CC-storage           STORAGE       0.00  3333.61     0  01:50           0        12.6      -3.933
  JK-storage           STORAGE       0.00  1287.84     0  01:50           0        4.01     -36.333
  XR-storage           STORAGE     200.00   200.00     0  00:00        5.76        6.36       0.001
  
  
  **********************
  Node Surcharge Summary
  **********************
  
  Surcharging occurs when water rises above the top of the highest conduit.
  ---------------------------------------------------------------------
                                               Max. Height   Min. Depth
                                   Hours       Above Crown    Below Rim
  Node                 Type      Surcharged         Meters       Meters
  ---------------------------------------------------------------------
  HS02004478           JUNCTION        0.43          0.648        0.292
  HS02004479           JUNCTION        0.56          0.937        0.113
  HS02004480           JUNCTION        0.61          0.988        0.112
  HS02004770           JUNCTION        0.52          0.720        0.000
  HS02004777           JUNCTION        0.52          0.780        0.000
  HS02004785           JUNCTION        0.47          0.790        0.000
  HS02004788           JUNCTION        0.45          0.720        0.000
  HS02004792           JUNCTION        0.58          0.900        0.000
  HS02004799           JUNCTION        0.69          1.060        0.000
  HS02004802           JUNCTION        0.61          1.079        0.131
  HS02004807           JUNCTION        0.60          1.220        0.000
  HS02004817           JUNCTION        1.21          1.688        0.052
  HS02004824           JUNCTION        0.45          1.266        0.044
  HS02004830           JUNCTION        0.42          1.280        0.050
  HS02004837           JUNCTION        0.38          1.340        0.000
  HS02004842           JUNCTION        0.52          1.520        0.000
  HS02004848           JUNCTION        0.35          1.296        0.074
  HS02004852           JUNCTION        0.38          1.349        0.071
  HS02004856           JUNCTION        0.35          1.298        0.002
  HS02004862           JUNCTION        0.39          1.300        0.000
  HS02004870           JUNCTION        0.40          1.400        0.000
  HS02004876           JUNCTION        0.46          1.560        0.000
  HS02004881           JUNCTION        0.44          1.450        0.000
  HS02004901           JUNCTION        0.53          0.720        0.000
  WS02004401           JUNCTION        1.60          1.660        0.000
  WS02004402           JUNCTION        1.62          1.524        0.216
  WS02004403           JUNCTION        1.62          1.405        0.625
  WS02004404           JUNCTION        1.71          1.214        1.566
  WS02004405           JUNCTION        1.69          1.352        1.448
  WS02004406           JUNCTION        1.67          1.469        0.981
  WS02004409           JUNCTION        0.97          0.434        1.926
  WS02004410           JUNCTION        0.91          0.288        2.252
  WS02004411           JUNCTION        0.82          0.199        2.331
  WS02004412           JUNCTION        0.72          0.102        2.208
  WS02004413           JUNCTION        1.39          0.149        2.051
  WS02006109           JUNCTION        2.07          1.820        0.000
  WS02006110           JUNCTION        1.85          1.662        0.188
  WS02006111           JUNCTION        1.22          1.057        0.813
  WS02006112           JUNCTION        1.89          1.680        0.000
  WS02006113           JUNCTION        1.26          1.270        0.660
  WS02006115           JUNCTION        1.53          1.450        0.800
  WS02006116           JUNCTION        1.55          1.917        0.373
  WS02006228           JUNCTION        2.07          2.200        0.000
  WS02006229           JUNCTION        0.89          1.070        0.000
  WS02006230           JUNCTION        1.70          1.570        0.000
  WS02006231           JUNCTION        1.74          1.486        0.044
  WS02006232           JUNCTION        1.89          1.480        0.000
  WS02006234           JUNCTION        1.79          1.240        0.000
  WS02006235           JUNCTION        1.80          1.265        0.025
  WS02006238           JUNCTION        1.81          1.266        0.164
  WS02006239           JUNCTION        1.79          1.113        0.177
  WS02006240           JUNCTION        1.78          1.390        0.000
  WS02006242           JUNCTION        1.80          0.820        0.000
  WS02006243           JUNCTION        1.73          0.770        0.000
  WS02006245           JUNCTION        1.70          0.850        0.000
  WS02006247           JUNCTION        1.70          0.760        0.000
  WS02006248           JUNCTION        1.65          0.380        0.000
  WS02006249           JUNCTION        1.67          0.390        0.000
  WS02006251           JUNCTION        1.53          1.180        0.000
  WS02006252           JUNCTION        1.58          1.100        0.000
  WS02006253           JUNCTION        1.54          2.480        0.000
  WS02006256           JUNCTION        7.39          2.050        0.000
  WS02006280           JUNCTION        0.71          0.728        0.052
  WS02006284           JUNCTION        0.63          0.662        0.138
  WS02006287           JUNCTION        0.54          0.791        0.099
  YS02001580           JUNCTION        0.53          0.450        0.000
  YS02001583           JUNCTION        0.54          0.500        0.000
  YS02001586           JUNCTION        0.65          0.510        0.000
  YS02001590           JUNCTION        0.73          0.750        0.000
  YS02001593           JUNCTION        0.74          0.704        0.136
  YS02001596           JUNCTION        0.84          1.022        0.048
  YS02001600           JUNCTION        1.01          1.190        0.000
  YS02001601           JUNCTION        1.44          1.440        0.000
  YS02001602           JUNCTION        1.30          1.270        0.000
  YS02001605           JUNCTION        1.23          1.180        0.000
  YS02001607           JUNCTION        0.66          0.680        0.000
  YS02001610           JUNCTION        0.69          0.680        0.000
  YS02001613           JUNCTION        0.65          0.689        0.011
  YS02001616           JUNCTION        0.60          0.610        0.000
  YS02001619           JUNCTION        0.59          0.610        0.000
  YS02001622           JUNCTION        0.58          0.620        0.000
  YS02001625           JUNCTION        0.79          0.780        0.000
  YS02001629           JUNCTION        0.47          0.470        0.000
  YS02001633           JUNCTION        0.80          1.027        0.033
  YS02001641           JUNCTION        0.67          1.100        0.000
  YS02001644           JUNCTION        0.61          0.920        0.000
  YS02001647           JUNCTION        0.35          0.900        0.000
  YS02001649           JUNCTION        0.39          1.050        0.000
  YS02001652           JUNCTION        0.26          1.130        0.000
  YS02001655           JUNCTION        0.18          1.160        0.040
  YS02001658           JUNCTION        0.09          1.300        0.000
  YS02001661           JUNCTION        0.01          0.807        0.583
  YS02001748           JUNCTION        0.02          1.190        0.000
  YS02001751           JUNCTION        0.11          1.200        0.000
  YS02001754           JUNCTION        0.18          1.150        0.000
  YS02001757           JUNCTION        0.38          1.210        0.000
  YS02001759           JUNCTION        0.32          1.210        0.000
  YS02001762           JUNCTION        0.30          1.150        0.000
  YS02001765           JUNCTION        0.27          1.100        0.000
  YS02001767           JUNCTION        0.26          1.030        0.000
  YS02001770           JUNCTION        0.25          0.920        0.000
  YS02001774           JUNCTION        0.30          0.996        0.054
  YS02001779           JUNCTION        0.20          0.680        0.000
  YS02001783           JUNCTION        0.50          0.633        0.967
  YS02001784           JUNCTION        0.47          0.426        1.064
  YS02001786           JUNCTION        0.37          0.172        1.258
  YS02001882           JUNCTION        0.44          0.830        0.000
  YS02001884           JUNCTION        0.45          0.870        0.000
  YS02001887           JUNCTION        0.49          0.872        0.078
  YS02001890           JUNCTION        0.50          0.760        0.000
  YS02001895           JUNCTION        0.43          0.577        0.173
  YS02001898           JUNCTION        0.42          0.611        0.129
  YS02001901           JUNCTION        0.47          0.692        0.178
  YS02001904           JUNCTION        0.46          0.648        0.202
  YS02001907           JUNCTION        0.69          0.950        0.000
  YS02001910           JUNCTION        0.53          1.013        0.087
  YS02001915           JUNCTION        0.44          0.981        0.019
  YS02001918           JUNCTION        0.36          0.810        0.000
  YS02001920           JUNCTION        0.37          1.102        0.038
  YS02001923           JUNCTION        0.01          0.820        0.000
  YS02001926           JUNCTION        0.02          0.900        0.000
  YS02001929           JUNCTION        0.01          0.780        0.000
  YS02006553           JUNCTION        0.71          1.021        0.169
  YS02006556           JUNCTION        0.61          1.011        0.339
  YS02006558           JUNCTION        0.60          1.008        0.392
  YS02006561           JUNCTION        0.32          0.321        0.829
  YS02163301           JUNCTION        0.78          0.936        0.094
  YS02163601           JUNCTION        0.83          1.059        0.021
  YS02164001           JUNCTION        0.69          0.961        0.139
  YSB1154              JUNCTION        0.82          1.267        0.133
  YSB1171              JUNCTION        0.83          1.100        0.000
  YSB1174              JUNCTION        0.73          1.123        0.127
  YSB6556              JUNCTION        0.66          1.100        0.000
  
  
  *********************
  Node Flooding Summary
  *********************
  
  Flooding refers to all water that overflows a node, whether it ponds or not.
  --------------------------------------------------------------------------
                                                             Total   Maximum
                                 Maximum   Time of Max       Flood    Ponded
                        Hours       Rate    Occurrence      Volume     Depth
  Node                 Flooded       LPS   days hr:min    10^6 ltr    Meters
  --------------------------------------------------------------------------
  HS02004770              0.30    680.36      0  01:50       0.407     0.000
  HS02004777              0.01     35.40      0  01:46       0.000     0.000
  HS02004785              0.01    157.05      0  01:46       0.000     0.000
  HS02004788              0.01    400.29      0  01:46       0.003     0.000
  HS02004792              0.31   1024.03      0  01:51       0.691     0.000
  HS02004799              0.12    147.14      0  01:50       0.034     0.000
  HS02004807              0.01      5.26      0  01:48       0.000     0.000
  HS02004837              0.01    185.81      0  01:47       0.000     0.000
  HS02004842              0.01     37.28      0  01:48       0.000     0.000
  HS02004862              0.01    246.05      0  01:48       0.003     0.000
  HS02004870              0.01    363.93      0  01:48       0.002     0.000
  HS02004876              0.01    115.66      0  01:48       0.001     0.000
  HS02004881              0.01    376.31      0  01:48       0.001     0.000
  HS02004901              0.38    517.04      0  01:53       0.522     0.000
  WS02004401              0.01      0.25      0  01:43       0.000     0.000
  WS02006109              0.36    230.38      0  01:51       0.186     0.000
  WS02006112              0.01   1153.65      0  00:00       0.035     0.000
  WS02006228              0.01      5.03      0  01:46       0.000     0.000
  WS02006229              0.01      9.28      0  01:46       0.000     0.000
  WS02006230              0.64    558.56      0  01:51       0.839     0.000
  WS02006232              0.13      0.65      0  02:12       0.000     0.000
  WS02006234              0.69    128.39      0  01:47       0.242     0.000
  WS02006240              0.01    116.81      0  01:37       0.000     0.000
  WS02006242              0.83    137.30      0  01:45       0.353     0.000
  WS02006243              0.01    257.68      0  01:37       0.000     0.000
  WS02006245              0.01     48.92      0  01:38       0.000     0.000
  WS02006247              0.01    170.39      0  01:38       0.000     0.000
  WS02006248              1.22    348.55      0  01:44       1.212     0.000
  WS02006249              1.52   1275.96      0  01:48       3.388     0.000
  WS02006251              0.01    100.22      0  01:48       0.000     0.000
  WS02006252              0.24    421.97      0  01:48       0.157     0.000
  WS02006253              0.01    113.98      0  01:48       0.000     0.000
  WS02006256              1.05    285.15      0  03:30       0.608     0.000
  YS02001580              0.01     82.51      0  01:46       0.000     0.000
  YS02001583              0.01    199.88      0  01:46       0.000     0.000
  YS02001586              0.41    202.79      0  01:54       0.170     0.000
  YS02001590              0.01     64.66      0  01:44       0.000     0.000
  YS02001600              0.01      2.08      0  01:46       0.000     0.000
  YS02001601              0.57    881.89      0  01:52       0.989     0.000
  YS02001602              0.40     63.48      0  01:53       0.081     0.000
  YS02001605              0.01      3.63      0  01:46       0.000     0.000
  YS02001607              0.01      4.87      0  01:53       0.000     0.000
  YS02001610              0.35    416.90      0  01:54       0.340     0.000
  YS02001616              0.01      7.18      0  01:46       0.000     0.000
  YS02001619              0.01    103.32      0  01:46       0.000     0.000
  YS02001622              0.01    183.43      0  01:46       0.000     0.000
  YS02001625              0.28   1049.41      0  01:53       0.542     0.000
  YS02001629              0.07    246.96      0  01:46       0.018     0.000
  YS02001641              0.01      0.46      0  01:53       0.000     0.000
  YS02001644              0.07    469.60      0  01:50       0.059     0.000
  YS02001647              0.01     11.29      0  01:50       0.000     0.000
  YS02001649              0.01     36.26      0  01:49       0.000     0.000
  YS02001652              0.01     50.51      0  01:49       0.000     0.000
  YS02001658              0.01    381.15      0  01:49       0.000     0.000
  YS02001748              0.01    347.61      0  01:49       0.000     0.000
  YS02001751              0.01     91.43      0  01:50       0.000     0.000
  YS02001754              0.01     44.26      0  01:50       0.000     0.000
  YS02001757              0.01      8.71      0  01:50       0.000     0.000
  YS02001759              0.01      8.21      0  01:50       0.000     0.000
  YS02001762              0.01     14.16      0  01:50       0.000     0.000
  YS02001765              0.01      9.27      0  01:50       0.000     0.000
  YS02001767              0.01      2.46      0  01:50       0.000     0.000
  YS02001770              0.01    209.38      0  01:48       0.000     0.000
  YS02001779              0.05    448.89      0  01:48       0.014     0.000
  YS02001882              0.01     27.63      0  01:47       0.000     0.000
  YS02001884              0.01     28.09      0  01:47       0.000     0.000
  YS02001890              0.09    110.68      0  01:50       0.024     0.000
  YS02001907              0.30   1246.68      0  01:49       0.721     0.000
  YS02001918              0.01    179.14      0  01:49       0.002     0.000
  YS02001923              0.01    210.68      0  01:48       0.001     0.000
  YS02001926              0.01    596.66      0  01:48       0.004     0.000
  YS02001929              0.01    506.57      0  01:48       0.001     0.000
  YSB1171                 0.22    614.51      0  01:52       0.277     0.000
  YSB6556                 0.01      8.09      0  01:46       0.000     0.000
  
  
  **********************
  Storage Volume Summary
  **********************
  
  ------------------------------------------------------------------------------------------------
                         Average    Avg   Evap  Exfil     Maximum    Max    Time of Max    Maximum
                          Volume   Pcnt   Pcnt   Pcnt      Volume   Pcnt     Occurrence    Outflow
  Storage Unit           1000 m   Full   Loss   Loss     1000 m   Full    days hr:min        LPS
  ------------------------------------------------------------------------------------------------
  CC-storage               1.206   18.8    0.0    0.0       3.735   58.3       0  02:55    1566.00
  JK-storage               0.003    1.1    0.0    0.0       0.151   51.7       0  00:05    2300.00
  XR-storage               0.944   65.6    0.0    0.0       1.111   77.1       0  08:00     190.00
  
  
  ***********************
  Outfall Loading Summary
  ***********************
  
  -----------------------------------------------------------
                         Flow       Avg       Max       Total
                         Freq      Flow      Flow      Volume
  Outfall Node           Pcnt       LPS       LPS    10^6 ltr
  -----------------------------------------------------------
  CC-1                  46.35    601.83    683.00       5.782
  CC-2                  79.53    369.72    683.00       5.000
  JK-1                  78.74    134.13   1000.00       2.491
  JK-2                  50.65    212.36   1000.00       2.533
  WSC                   99.99    589.39   1488.60      14.444
  -----------------------------------------------------------
  System                71.05   1907.43   4074.36      30.249
  
  
  ********************
  Link Flow Summary
  ********************
  
  -----------------------------------------------------------------------------
                                 Maximum  Time of Max   Maximum    Max/    Max/
                                  |Flow|   Occurrence   |Veloc|    Full    Full
  Link                 Type          LPS  days hr:min     m/sec    Flow   Depth
  -----------------------------------------------------------------------------
  1                    CONDUIT   1488.60     0  01:56      3.69    0.52    0.51
  HS02004478WS02006287 CONDUIT   2274.82     0  01:51      2.56    0.64    1.00
  HS02004479HS02004480 CONDUIT    518.72     0  01:48      0.74    0.50    1.00
  HS02004480HS02004478 CONDUIT   2164.28     0  01:47      3.09    9.12    1.00
  HS02004770HS02004777 CONDUIT    790.36     0  01:45      1.13    1.45    1.00
  HS02004777HS02004785 CONDUIT    808.24     0  01:45      1.23    0.99    1.00
  HS02004785HS02004788 CONDUIT    666.93     0  01:46      1.35    5.03    1.00
  HS02004788HS02004792 CONDUIT    819.11     0  02:09      1.43    0.54    1.00
  HS02004792HS02004799 CONDUIT   1574.64     0  01:46      2.25    0.96    1.00
  HS02004799HS02004480 CONDUIT   1757.28     0  01:46      2.51    2.22    1.00
  HS02004802HS02004478 CONDUIT    954.85     0  01:52      1.36    0.84    1.00
  HS02004807HS02004802 CONDUIT    954.77     0  01:52      1.36    1.82    1.00
  HS02004817HS02004807 CONDUIT    604.38     0  01:52      0.86    0.36    1.00
  HS02004817HS02004824 CONDUIT    603.68     0  01:52      0.86    0.27    1.00
  HS02004824HS02004830 CONDUIT    716.68     0  01:46      1.02    0.94    1.00
  HS02004830HS02004837 CONDUIT    732.51     0  01:46      1.13    0.73    1.00
  HS02004837HS02004842 CONDUIT    926.30     0  01:47      1.32    0.55    1.00
  HS02004842HS02004848 CONDUIT    924.93     0  01:47      1.48    0.54    1.00
  HS02004848HS02004852 CONDUIT   1156.13     0  01:48      1.67    1.30    1.00
  HS02004852HS02004856 CONDUIT   1168.58     0  01:48      1.67    1.34    1.00
  HS02004856HS02004862 CONDUIT   1232.30     0  01:48      1.76    1.23    1.00
  HS02004862HS02004870 CONDUIT   1392.57     0  01:48      2.01    1.50    1.00
  HS02004870HS02004876 CONDUIT   1254.45     0  01:48      1.89    0.83    1.00
  HS02004876HS02004881 CONDUIT   1426.12     0  01:48      2.42   15.17    1.00
  HS02004881HS02006253 CONDUIT   1529.79     0  01:48      2.69    0.30    1.00
  HS02004901HS02004770 CONDUIT    265.77     0  02:03      0.38    1.00    1.00
  WS02001211WS02001212 CONDUIT    206.15     0  02:55      0.54    0.16    0.69
  WS02001212WS02001213 CONDUIT    209.08     0  03:19      1.03    0.32    0.56
  WS02001213WS02003059 CONDUIT    213.39     0  03:20      0.47    0.35    0.89
  WS02003059WS02003060 CONDUIT    219.31     0  03:19      0.66    0.14    0.81
  WS02003060WS02003069 CONDUIT   1488.56     0  01:53      2.08    0.58    0.60
  WS02003066WSF200     CONDUIT   1282.36     0  01:51      3.35    0.22    0.38
  WS02003067WS02003066 CONDUIT   1282.40     0  01:51      1.99    0.41    0.56
  WS02003069WS02003072 CONDUIT   1487.58     0  01:54      1.89    0.72    0.66
  WS02003072WS02003073 CONDUIT   1487.23     0  01:54      2.04    3.21    0.61
  WS02004138WS02004139 CONDUIT    190.00     0  00:32      2.17    0.04    0.41
  WS02004139WS02001211 CONDUIT    220.43     0  01:46      0.55    0.28    0.60
  WS02004401WS02004402 CONDUIT   1280.83     0  01:50      2.07    1.54    1.00
  WS02004402WS02004403 CONDUIT   1280.80     0  01:50      1.84    1.84    1.00
  WS02004403WS02004404 CONDUIT   1281.34     0  01:50      1.68    0.93    1.00
  WS02004404WS02004405 CONDUIT   1281.19     0  01:50      1.86   12.55    1.00
  WS02004405WS02004406 CONDUIT   1281.24     0  01:50      1.80    2.53    1.00
  WS02004406WS02004407 CONDUIT   1288.25     0  01:43      1.92    0.58    0.95
  WS02004407WS02004409 CONDUIT   1281.47     0  01:53      1.93    0.45    0.95
  WS02004409WS02004410 CONDUIT   1281.71     0  01:53      1.63    1.66    1.00
  WS02004410WS02004411 CONDUIT   1280.79     0  01:51      1.63    1.75    1.00
  WS02004411WS02004412 CONDUIT   1280.76     0  01:51      1.63    1.82    1.00
  WS02004412WS02004413 CONDUIT   1280.69     0  01:51      1.63    0.86    1.00
  WS02004413WS02003067 CONDUIT   1280.69     0  01:51      1.99    0.55    0.76
  WS02006109WS02006110 CONDUIT   1306.78     0  00:00      3.15    2.51    1.00
  WS02006110WS02006113 CONDUIT   1121.50     0  02:08      2.23    1.02    1.00
  WS02006111WS02006112 CONDUIT   2307.30     0  00:00      9.18    1.10    1.00
  WS02006112WS02006115 CONDUIT   2152.75     0  00:00      2.85    1.27    1.00
  WS02006113WS02006111 CONDUIT   1176.04     0  00:00      2.66    1.41    1.00
  WS02006115WS02006116 CONDUIT   1280.65     0  01:50      1.81    1.64    1.00
  WS02006116WS02004401 CONDUIT   1280.57     0  01:50      2.21    1.77    1.00
  WS02006228WS02006109 CONDUIT   1272.75     0  01:51      2.53    5.56    1.00
  WS02006229WS02006228 CONDUIT   1272.92     0  01:51      2.53    4.22    1.00
  WS02006230WS02006229 CONDUIT   1001.16     0  01:51      2.60   22.28    1.00
  WS02006231WS02006230 CONDUIT    453.23     0  01:48      1.29    6.87    1.00
  WS02006232WS02006231 CONDUIT    453.29     0  01:48      1.18    0.95    1.00
  WS02006234WS02006232 CONDUIT    453.09     0  01:48      1.18    0.92    1.00
  WS02006235WS02006234 CONDUIT    416.57     0  03:10      1.08    4.40    1.00
  WS02006238WS02006235 CONDUIT    415.80     0  02:11      1.23    0.93    1.00
  WS02006239WS02006238 CONDUIT    415.15     0  02:11      1.08    1.33    1.00
  WS02006240WS02006239 CONDUIT    414.85     0  02:11      1.09    1.31    1.00
  WS02006242WS02006240 CONDUIT    414.89     0  02:11      1.08    1.65    1.00
  WS02006243WS02006242 CONDUIT    288.36     0  03:26      1.14    0.62    1.00
  WS02006245WS02006243 CONDUIT    278.10     0  02:02      1.13    0.82    1.00
  WS02006247WS02006245 CONDUIT    295.68     0  01:37      1.10    2.34    1.00
  WS02006248WS02006247 CONDUIT    322.53     0  01:37      1.17    0.70    1.00
  WS02006249WS02006248 CONDUIT    346.23     0  01:38      1.22    1.90    1.00
  WS02006251WS02006249 CONDUIT   1339.46     0  01:48      3.48    3.86    1.00
  WS02006252WS02006251 CONDUIT   1298.45     0  00:05     20.66    4.77    1.00
  WS02006253WS02006251 CONDUIT   1559.57     0  01:48      4.05    4.68    1.00
  WS02006256WS02006235 CONDUIT    216.64     0  03:30      3.06    2.29    1.00
  WS02006280WS02006229 CONDUIT   2275.11     0  01:51      4.41    0.49    1.00
  WS02006284WS02006280 CONDUIT   2274.19     0  01:51      2.96    0.95    1.00
  WS02006287WS02006284 CONDUIT   2273.51     0  01:51      2.89    1.05    1.00
  WSF200WS02003060     CONDUIT   1280.71     0  01:52      2.47    0.28    0.50
  YS02001580YS02001583 CONDUIT    131.05     0  01:46      0.79    0.51    1.00
  YS02001583YS02001586 CONDUIT    185.50     0  01:46      0.81    0.28    1.00
  YS02001586YS02001590 CONDUIT    317.90     0  02:09      1.26    0.56    1.00
  YS02001590YS02001593 CONDUIT    317.92     0  02:08      1.12    2.00    1.00
  YS02001593YS02001596 CONDUIT    317.96     0  02:02      1.74    0.50    1.00
  YS02001596YS02001600 CONDUIT    318.03     0  01:53      1.21    0.62    1.00
  YS02001600YS02001601 CONDUIT    318.15     0  01:53      1.13    0.55    1.00
  YS02001601YS02001602 CONDUIT    552.19     0  01:45      1.95    1.99    1.00
  YS02001602YS02001605 CONDUIT    552.35     0  01:45      1.95   11.69    1.00
  YS02001605YS02001607 CONDUIT    552.53     0  01:45      1.95    3.03    1.00
  YS02001607YS02001610 CONDUIT    545.24     0  01:45      0.69    0.52    1.00
  YS02001610YS02001613 CONDUIT    552.98     0  01:45      0.70    0.64    1.00
  YS02001613YS02001616 CONDUIT    564.23     0  01:45      0.72    0.48    1.00
  YS02001616YS02001619 CONDUIT    521.95     0  01:46      0.68    0.91    1.00
  YS02001619YS02001622 CONDUIT    948.28     0  01:46      1.23    1.40    1.00
  YS02001622YS02001625 CONDUIT    948.17     0  01:46      1.21    0.51    1.00
  YS02001625YS02001629 CONDUIT    949.67     0  01:46      1.21    0.45    1.00
  YS02001629YS02163301 CONDUIT    941.11     0  02:10      1.20    1.16    1.00
  YS02001633YS02163601 CONDUIT   1433.88     0  01:47      1.83    1.51    1.00
  YS02001641YS02001644 CONDUIT   1433.12     0  01:47      1.82    4.63    1.00
  YS02001644YS02001647 CONDUIT   1899.64     0  01:47      2.43    1.12    1.00
  YS02001647YS02001649 CONDUIT   1879.07     0  01:47      2.39    0.99    1.00
  YS02001649YS02001757 CONDUIT   2178.49     0  01:47      2.77    1.32    1.00
  YS02001652YS02001649 CONDUIT    802.56     0  01:51      1.02    0.40    1.00
  YS02001655YS02001652 CONDUIT    802.49     0  01:51      1.39    0.39    1.00
  YS02001658YS02001655 CONDUIT    802.33     0  01:51      1.97    0.34    1.00
  YS02001661YS02001658 CONDUIT    801.51     0  01:51      2.42    0.31    1.00
  YS02001664YS02001661 CONDUIT    783.34     0  01:50      2.43    0.25    0.83
  YS02001745YS02001748 CONDUIT    654.78     0  01:49      2.32    0.25    0.98
  YS02001748YS02001751 CONDUIT    562.43     0  01:50      1.82    0.28    1.00
  YS02001751YS02001754 CONDUIT    562.72     0  01:50      1.44    0.27    1.00
  YS02001754YS02001757 CONDUIT    563.12     0  01:50      0.72    0.23    1.00
  YS02001757CaochengTiaoxuchi CONDUIT   3333.61     0  01:50      6.62    1.44    0.99
  YS02001759YS02001757 CONDUIT   1343.18     0  01:49      1.71    0.95    1.00
  YS02001762YS02001759 CONDUIT    787.80     0  01:52      1.00    0.91    1.00
  YS02001765YS02001762 CONDUIT    787.07     0  01:52      1.00    0.74    1.00
  YS02001767YS02001765 CONDUIT    786.55     0  01:52      1.00    0.99    1.00
  YS02001770YS02001767 CONDUIT    785.65     0  01:52      1.00    3.11    1.00
  YS02001774YS02001770 CONDUIT    491.10     0  01:48      0.63    0.31    1.00
  YS02001779YS02001774 CONDUIT    495.81     0  01:48      0.64    0.25    1.00
  YS02001783YS02001784 CONDUIT   1157.82     0  01:49      2.30    1.60    1.00
  YS02001784YS02001785 CONDUIT   1158.75     0  01:49      2.31    2.70    1.00
  YS02001786YS02001788 CONDUIT   1159.69     0  01:49      2.48    2.23    0.89
  YS02001788YS02001790 CONDUIT   1171.54     0  01:53      2.73    0.86    0.84
  YS02001790YS02001791 CONDUIT   1288.86     0  01:50      3.43    1.40    0.70
  YS02001791YS02001793 CONDUIT   1241.97     0  01:50      6.75    0.53    0.43
  YS02001793JiankangQianchi CONDUIT   1287.84     0  01:50     24.73    0.10    0.60
  YS02001882YS02001884 CONDUIT     64.63     0  01:46      0.13    0.07    1.00
  YS02001884YS02001887 CONDUIT    120.87     0  01:46      0.15    0.16    1.00
  YS02001887YS02001890 CONDUIT    623.69     0  01:50      0.79    1.07    1.00
  YS02001890YS02001895 CONDUIT    529.03     0  01:47      0.67    0.25    1.00
  YS02001895YS02001898 CONDUIT    530.31     0  01:47      0.68    0.92    1.00
  YS02001898YS02001901 CONDUIT    532.41     0  01:47      0.68    0.34    1.00
  YS02001901YS02001904 CONDUIT    533.55     0  01:47      0.68    0.83    1.00
  YS02001904YS02001907 CONDUIT    535.10     0  01:47      0.68    0.19    1.00
  YS02001907YS02006553 CONDUIT    792.97     0  02:07      0.88    0.93    1.00
  YS02001910YS02001907 CONDUIT   1092.94     0  01:49      1.39    0.62    1.00
  YS02001915YS02001910 CONDUIT   1092.78     0  01:49      1.39    0.54    1.00
  YS02001918YS02001915 CONDUIT    556.63     0  01:47      0.71    0.31    1.00
  YS02001920YS02001918 CONDUIT    535.31     0  01:48      0.68    0.52    1.00
  YS02001923YS02001920 CONDUIT    516.69     0  01:48      0.72    0.23    1.00
  YS02001926YS02001923 CONDUIT    706.36     0  01:48      1.14    1.01    1.00
  YS02001929YS02001926 CONDUIT    502.31     0  01:48      1.19    0.24    1.00
  YS02006553YS02006556 CONDUIT    793.12     0  02:07      1.01    0.68    1.00
  YS02006556YS02006558 CONDUIT    793.59     0  02:07      1.01    0.63    1.00
  YS02006558YS02006561 CONDUIT   1163.51     0  01:48      4.12    2.57    1.00
  YS02006561YS02001783 CONDUIT   1157.85     0  01:49      2.30    0.60    1.00
  YS02163301YS02001633 CONDUIT    941.23     0  02:10      1.20    0.88    1.00
  YS02163601YS02164001 CONDUIT   1433.21     0  01:47      1.82    1.27    1.00
  YS02164001YS02001641 CONDUIT   1433.11     0  01:47      1.82    1.96    1.00
  YSB1154YSB6556       CONDUIT    329.95     0  01:51      0.86    0.59    1.00
  YSB1171HS02004479    CONDUIT    519.95     0  01:48      1.03    0.35    1.00
  YSB1174YSB1171       CONDUIT    292.53     0  01:50      0.76    0.45    1.00
  YSB6556YSB1171       CONDUIT    330.04     0  01:51      0.86    0.34    1.00
  CC-R1                PUMP       683.00     0  00:05              1.00
  CC-R2                PUMP       683.00     0  00:05              1.00
  CC-S1                PUMP       200.00     0  01:35              1.00
  CC-S2                PUMP       200.00     0  00:05              1.00
  JK-R1                PUMP      1000.00     0  00:05              1.00
  JK-R2                PUMP      1000.00     0  01:40              1.00
  JK-S                 PUMP       300.00     0  01:40              1.00
  XR-1                 PUMP        95.00     0  00:10              1.00
  XR-2                 PUMP        95.00     0  00:29              1.00
  XR-3                 PUMP         0.00     0  00:00              0.00
  XR-4                 PUMP         0.00     0  00:00              0.00
  
  
  ***************************
  Flow Classification Summary
  ***************************
  
  -------------------------------------------------------------------------------------
                      Adjusted    ---------- Fraction of Time in Flow Class ---------- 
                       /Actual         Up    Down  Sub   Sup   Up    Down  Norm  Inlet 
  Conduit               Length    Dry  Dry   Dry   Crit  Crit  Crit  Crit  Ltd   Ctrl  
  -------------------------------------------------------------------------------------
  1                       1.00   0.00  0.00  0.00  0.00  1.00  0.00  0.00  0.55  0.00
  HS02004478WS02006287    1.00   0.16  0.00  0.00  0.67  0.17  0.00  0.00  0.60  0.00
  HS02004479HS02004480    1.00   0.04  0.00  0.00  0.96  0.00  0.00  0.00  0.11  0.00
  HS02004480HS02004478    1.00   0.13  0.00  0.00  0.62  0.00  0.00  0.25  0.00  0.00
  HS02004770HS02004777    1.00   0.00  0.13  0.00  0.87  0.00  0.00  0.00  0.03  0.00
  HS02004777HS02004785    1.00   0.00  0.00  0.00  1.00  0.00  0.00  0.00  0.12  0.00
  HS02004785HS02004788    1.00   0.00  0.00  0.00  1.00  0.00  0.00  0.00  0.00  0.00
  HS02004788HS02004792    1.00   0.00  0.00  0.00  0.99  0.01  0.00  0.00  0.91  0.00
  HS02004792HS02004799    1.00   0.00  0.00  0.00  0.99  0.01  0.00  0.00  0.86  0.00
  HS02004799HS02004480    1.00   0.00  0.03  0.00  0.84  0.00  0.12  0.00  0.00  0.00
  HS02004802HS02004478    1.00   0.13  0.01  0.00  0.86  0.00  0.00  0.00  0.02  0.00
  HS02004807HS02004802    1.00   0.13  0.00  0.00  0.85  0.00  0.00  0.02  0.00  0.00
  HS02004817HS02004807    1.00   0.00  0.13  0.00  0.87  0.00  0.00  0.00  0.01  0.00
  HS02004817HS02004824    1.00   0.00  0.00  0.00  1.00  0.00  0.00  0.00  0.81  0.00
  HS02004824HS02004830    1.00   0.00  0.00  0.00  1.00  0.00  0.00  0.00  0.01  0.00
  HS02004830HS02004837    1.00   0.00  0.00  0.00  1.00  0.00  0.00  0.00  0.89  0.00
  HS02004837HS02004842    1.00   0.00  0.00  0.00  0.99  0.01  0.00  0.00  0.11  0.00
  HS02004842HS02004848    1.00   0.00  0.13  0.00  0.87  0.00  0.00  0.00  0.56  0.00
  HS02004848HS02004852    1.00   0.13  0.00  0.00  0.87  0.00  0.00  0.00  0.72  0.00
  HS02004852HS02004856    1.00   0.13  0.01  0.00  0.86  0.00  0.00  0.00  0.67  0.00
  HS02004856HS02004862    1.00   0.00  0.17  0.00  0.83  0.00  0.00  0.00  0.75  0.00
  HS02004862HS02004870    1.00   0.00  0.00  0.00  1.00  0.00  0.00  0.00  0.03  0.00
  HS02004870HS02004876    1.00   0.00  0.00  0.00  1.00  0.00  0.00  0.00  0.87  0.00
  HS02004876HS02004881    1.00   0.01  0.00  0.00  0.85  0.15  0.00  0.00  0.00  0.00
  HS02004881HS02006253    1.00   0.03  0.02  0.00  0.34  0.01  0.00  0.60  0.28  0.00
  HS02004901HS02004770    1.00   0.13  0.00  0.00  0.87  0.00  0.00  0.00  0.00  0.00
  WS02001211WS02001212    1.00   0.00  0.02  0.00  0.98  0.00  0.00  0.00  0.00  0.00
  WS02001212WS02001213    1.00   0.02  0.00  0.00  0.35  0.00  0.62  0.00  0.00  0.00
  WS02001213WS02003059    1.00   0.00  0.01  0.00  0.99  0.00  0.00  0.00  0.00  0.00
  WS02003059WS02003060    1.00   0.00  0.00  0.00  1.00  0.00  0.00  0.00  0.03  0.00
  WS02003060WS02003069    1.00   0.00  0.00  0.00  0.97  0.03  0.00  0.00  0.45  0.00
  WS02003066WSF200        1.00   0.06  0.00  0.00  0.00  0.94  0.00  0.00  0.69  0.00
  WS02003067WS02003066    1.00   0.05  0.01  0.00  0.94  0.00  0.00  0.00  0.00  0.00
  WS02003069WS02003072    1.00   0.00  0.00  0.00  0.99  0.01  0.00  0.00  0.61  0.00
  WS02003072WS02003073    1.00   0.00  0.00  0.00  0.00  0.00  0.00  1.00  0.00  0.00
  WS02004138WS02004139    1.00   0.02  0.00  0.00  0.97  0.01  0.00  0.00  0.98  0.00
  WS02004139WS02001211    1.00   0.00  0.01  0.00  0.99  0.00  0.00  0.00  0.00  0.00
  WS02004401WS02004402    1.00   0.00  0.00  0.00  1.00  0.00  0.00  0.00  0.00  0.00
  WS02004402WS02004403    1.00   0.00  0.00  0.00  1.00  0.00  0.00  0.00  0.00  0.00
  WS02004403WS02004404    1.00   0.00  0.00  0.00  1.00  0.00  0.00  0.00  0.00  0.00
  WS02004404WS02004405    1.00   0.00  0.00  0.00  1.00  0.00  0.00  0.00  0.01  0.00
  WS02004405WS02004406    1.00   0.00  0.00  0.00  1.00  0.00  0.00  0.00  0.00  0.00
  WS02004406WS02004407    1.00   0.00  0.01  0.00  0.99  0.00  0.00  0.00  0.01  0.00
  WS02004407WS02004409    1.00   0.01  0.00  0.00  0.98  0.01  0.00  0.00  0.86  0.00
  WS02004409WS02004410    1.00   0.01  0.00  0.00  0.99  0.00  0.00  0.00  0.00  0.00
  WS02004410WS02004411    1.00   0.01  0.00  0.00  0.99  0.00  0.00  0.00  0.01  0.00
  WS02004411WS02004412    1.00   0.01  0.00  0.00  0.99  0.00  0.00  0.00  0.00  0.00
  WS02004412WS02004413    1.00   0.01  0.00  0.00  0.99  0.00  0.00  0.00  0.02  0.00
  WS02004413WS02003067    1.00   0.01  0.04  0.00  0.00  0.00  0.95  0.00  0.00  0.00
  WS02006109WS02006110    1.00   0.00  0.00  0.00  1.00  0.00  0.00  0.00  0.00  0.00
  WS02006110WS02006113    1.00   0.00  0.00  0.00  1.00  0.00  0.00  0.00  0.00  0.00
  WS02006111WS02006112    1.00   0.00  0.00  0.00  1.00  0.00  0.00  0.00  0.79  0.00
  WS02006112WS02006115    1.00   0.00  0.00  0.00  1.00  0.00  0.00  0.00  0.00  0.00
  WS02006113WS02006111    1.00   0.00  0.00  0.00  0.20  0.80  0.00  0.00  0.05  0.00
  WS02006115WS02006116    1.00   0.00  0.00  0.00  1.00  0.00  0.00  0.00  0.00  0.00
  WS02006116WS02004401    1.00   0.00  0.00  0.00  1.00  0.00  0.00  0.00  0.00  0.00
  WS02006228WS02006109    1.00   0.00  0.00  0.00  1.00  0.00  0.00  0.00  0.00  0.00
  WS02006229WS02006228    1.00   0.00  0.00  0.00  1.00  0.00  0.00  0.00  0.00  0.00
  WS02006230WS02006229    1.00   0.00  0.00  0.00  1.00  0.00  0.00  0.00  0.00  0.00
  WS02006231WS02006230    1.00   0.00  0.00  0.00  0.29  0.00  0.70  0.00  0.00  0.00
  WS02006232WS02006231    1.00   0.00  0.00  0.00  0.99  0.00  0.00  0.00  0.01  0.00
  WS02006234WS02006232    1.00   0.00  0.01  0.00  0.99  0.00  0.00  0.00  0.03  0.00
  WS02006235WS02006234    1.00   0.02  0.00  0.00  0.86  0.00  0.12  0.00  0.00  0.00
  WS02006238WS02006235    1.00   0.02  0.00  0.00  0.98  0.00  0.00  0.00  0.00  0.00
  WS02006239WS02006238    1.00   0.02  0.00  0.00  0.98  0.00  0.00  0.00  0.09  0.00
  WS02006240WS02006239    1.00   0.02  0.00  0.00  0.60  0.00  0.00  0.38  0.03  0.00
  WS02006242WS02006240    1.00   0.01  0.00  0.00  0.98  0.00  0.01  0.00  0.00  0.00
  WS02006243WS02006242    1.00   0.01  0.00  0.00  0.98  0.00  0.00  0.01  0.57  0.00
  WS02006245WS02006243    1.00   0.01  0.00  0.00  0.87  0.00  0.00  0.12  0.00  0.00
  WS02006247WS02006245    1.00   0.01  0.00  0.00  0.98  0.00  0.00  0.01  0.00  0.00
  WS02006248WS02006247    1.00   0.01  0.00  0.00  0.98  0.00  0.00  0.01  0.56  0.00
  WS02006249WS02006248    1.00   0.00  0.01  0.00  0.44  0.00  0.55  0.00  0.00  0.00
  WS02006251WS02006249    1.00   0.00  0.00  0.00  1.00  0.00  0.00  0.00  0.54  0.00
  WS02006252WS02006251    1.00   0.01  0.10  0.00  0.20  0.00  0.69  0.00  0.00  0.00
  WS02006253WS02006251    1.00   0.01  0.00  0.00  0.99  0.00  0.00  0.00  0.00  0.00
  WS02006256WS02006235    1.00   0.02  0.00  0.00  0.98  0.00  0.00  0.00  0.00  0.00
  WS02006280WS02006229    1.00   0.14  0.00  0.00  0.15  0.04  0.00  0.67  0.01  0.00
  WS02006284WS02006280    1.00   0.14  0.00  0.00  0.10  0.01  0.00  0.75  0.00  0.00
  WS02006287WS02006284    1.00   0.10  0.06  0.00  0.57  0.27  0.00  0.00  0.65  0.00
  WSF200WS02003060        1.00   0.00  0.06  0.00  0.68  0.26  0.00  0.00  0.59  0.00
  YS02001580YS02001583    1.00   0.22  0.60  0.00  0.18  0.00  0.00  0.00  0.69  0.00
  YS02001583YS02001586    1.00   0.43  0.33  0.00  0.24  0.00  0.00  0.00  0.69  0.00
  YS02001586YS02001590    1.00   0.13  0.00  0.00  0.41  0.04  0.00  0.42  0.36  0.00
  YS02001590YS02001593    1.00   0.13  0.01  0.00  0.11  0.00  0.76  0.00  0.00  0.00
  YS02001593YS02001596    1.00   0.13  0.00  0.00  0.12  0.01  0.00  0.73  0.02  0.00
  YS02001596YS02001600    1.00   0.14  0.00  0.00  0.20  0.01  0.00  0.65  0.05  0.00
  YS02001600YS02001601    1.00   0.13  0.01  0.00  0.86  0.00  0.00  0.00  0.61  0.00
  YS02001601YS02001602    1.00   0.13  0.01  0.00  0.87  0.00  0.00  0.00  0.00  0.00
  YS02001602YS02001605    1.00   0.14  0.00  0.00  0.86  0.00  0.00  0.00  0.00  0.00
  YS02001605YS02001607    1.00   0.14  0.00  0.00  0.86  0.00  0.00  0.00  0.00  0.00
  YS02001607YS02001610    1.00   0.13  0.01  0.00  0.86  0.00  0.00  0.00  0.01  0.00
  YS02001610YS02001613    1.00   0.13  0.00  0.00  0.87  0.00  0.00  0.00  0.00  0.00
  YS02001613YS02001616    1.00   0.13  0.00  0.00  0.87  0.00  0.00  0.00  0.00  0.00
  YS02001616YS02001619    1.00   0.13  0.00  0.00  0.87  0.00  0.00  0.00  0.00  0.00
  YS02001619YS02001622    1.00   0.13  0.00  0.00  0.87  0.00  0.00  0.00  0.29  0.00
  YS02001622YS02001625    1.00   0.13  0.00  0.00  0.87  0.00  0.00  0.00  0.04  0.00
  YS02001625YS02001629    1.00   0.13  0.05  0.00  0.15  0.00  0.67  0.00  0.00  0.00
  YS02001629YS02163301    1.00   0.15  0.01  0.00  0.84  0.00  0.00  0.00  0.00  0.00
  YS02001633YS02163601    1.00   0.00  0.01  0.00  0.99  0.00  0.00  0.00  0.15  0.00
  YS02001641YS02001644    1.00   0.00  0.01  0.00  0.99  0.00  0.00  0.00  0.00  0.00
  YS02001644YS02001647    1.00   0.00  0.17  0.00  0.83  0.00  0.00  0.00  0.00  0.00
  YS02001647YS02001649    1.00   0.00  0.17  0.00  0.58  0.25  0.00  0.00  0.57  0.00
  YS02001649YS02001757    1.00   0.00  0.00  0.00  0.90  0.09  0.00  0.00  0.75  0.00
  YS02001652YS02001649    1.00   0.00  0.00  0.00  0.97  0.03  0.00  0.00  0.73  0.00
  YS02001655YS02001652    1.00   0.00  0.00  0.00  0.20  0.01  0.00  0.79  0.10  0.00
  YS02001658YS02001655    1.00   0.00  0.14  0.00  0.61  0.25  0.00  0.00  0.73  0.00
  YS02001661YS02001658    1.00   0.14  0.00  0.00  0.44  0.42  0.00  0.00  0.74  0.00
  YS02001664YS02001661    1.00   0.13  0.00  0.00  0.73  0.14  0.00  0.00  0.86  0.00
  YS02001745YS02001748    1.00   0.00  0.00  0.00  0.03  0.01  0.00  0.96  0.02  0.00
  YS02001748YS02001751    1.00   0.00  0.00  0.00  0.76  0.24  0.00  0.00  0.83  0.00
  YS02001751YS02001754    1.00   0.00  0.00  0.00  0.19  0.01  0.00  0.81  0.12  0.00
  YS02001754YS02001757    1.00   0.00  0.00  0.00  1.00  0.00  0.00  0.00  0.79  0.00
  YS02001757CaochengTiaoxuchi    1.00   0.00  0.00  0.00  0.32  0.68  0.00  0.00  0.15  0.00
  YS02001759YS02001757    1.00   0.00  0.00  0.00  1.00  0.00  0.00  0.00  0.71  0.00
  YS02001762YS02001759    1.00   0.00  0.00  0.00  1.00  0.00  0.00  0.00  0.03  0.00
  YS02001765YS02001762    1.00   0.00  0.00  0.00  1.00  0.00  0.00  0.00  0.71  0.00
  YS02001767YS02001765    1.00   0.00  0.00  0.00  1.00  0.00  0.00  0.00  0.00  0.00
  YS02001770YS02001767    1.00   0.00  0.00  0.00  1.00  0.00  0.00  0.00  0.00  0.00
  YS02001774YS02001770    1.00   0.00  0.13  0.00  0.70  0.00  0.17  0.00  0.03  0.00
  YS02001779YS02001774    1.00   0.00  0.00  0.00  1.00  0.00  0.00  0.00  0.77  0.00
  YS02001783YS02001784    1.00   0.00  0.18  0.00  0.82  0.00  0.00  0.00  0.56  0.00
  YS02001784YS02001785    1.00   0.00  0.00  0.00  1.00  0.00  0.00  0.00  0.17  0.00
  YS02001786YS02001788    1.00   0.00  0.00  0.00  0.79  0.21  0.00  0.00  0.00  0.00
  YS02001788YS02001790    1.00   0.00  0.00  0.00  0.21  0.79  0.00  0.00  0.81  0.00
  YS02001790YS02001791    1.00   0.00  0.00  0.00  0.01  0.99  0.00  0.00  0.16  0.00
  YS02001791YS02001793    1.00   0.00  0.00  0.00  0.00  1.00  0.00  0.00  0.01  0.00
  YS02001793JiankangQianchi    1.00   0.00  0.00  0.00  0.04  0.96  0.00  0.00  0.09  0.00
  YS02001882YS02001884    1.00   0.15  0.01  0.00  0.84  0.00  0.00  0.00  0.00  0.00
  YS02001884YS02001887    1.00   0.06  0.05  0.00  0.89  0.00  0.00  0.00  0.00  0.00
  YS02001887YS02001890    1.00   0.00  0.00  0.00  0.97  0.00  0.03  0.00  0.00  0.00
  YS02001890YS02001895    1.00   0.00  0.16  0.00  0.84  0.00  0.00  0.00  0.00  0.00
  YS02001895YS02001898    1.00   0.16  0.00  0.00  0.82  0.00  0.02  0.00  0.00  0.00
  YS02001898YS02001901    1.00   0.17  0.00  0.00  0.83  0.00  0.00  0.00  0.01  0.00
  YS02001901YS02001904    1.00   0.17  0.00  0.00  0.83  0.00  0.00  0.00  0.00  0.00
  YS02001904YS02001907    1.00   0.00  0.16  0.00  0.83  0.00  0.00  0.00  0.00  0.00
  YS02001907YS02006553    1.00   0.00  0.02  0.00  0.98  0.00  0.00  0.00  0.00  0.00
  YS02001910YS02001907    1.00   0.00  0.00  0.00  0.97  0.00  0.00  0.03  0.12  0.00
  YS02001915YS02001910    1.00   0.00  0.00  0.00  0.96  0.04  0.00  0.00  0.16  0.00
  YS02001918YS02001915    1.00   0.00  0.00  0.00  0.98  0.02  0.00  0.00  0.76  0.00
  YS02001920YS02001918    1.00   0.00  0.00  0.00  1.00  0.00  0.00  0.00  0.01  0.00
  YS02001923YS02001920    1.00   0.00  0.00  0.00  1.00  0.00  0.00  0.00  0.93  0.00
  YS02001926YS02001923    1.00   0.00  0.07  0.00  0.06  0.00  0.87  0.00  0.00  0.00
  YS02001929YS02001926    1.00   0.00  0.13  0.00  0.87  0.00  0.00  0.00  0.83  0.00
  YS02006553YS02006556    1.00   0.01  0.00  0.00  0.99  0.00  0.00  0.00  0.03  0.00
  YS02006556YS02006558    1.00   0.00  0.00  0.00  1.00  0.00  0.00  0.00  0.00  0.00
  YS02006558YS02006561    1.00   0.18  0.00  0.00  0.05  0.77  0.00  0.00  0.19  0.00
  YS02006561YS02001783    1.00   0.18  0.00  0.00  0.08  0.74  0.00  0.00  0.69  0.00
  YS02163301YS02001633    1.00   0.00  0.15  0.00  0.85  0.00  0.00  0.00  0.00  0.00
  YS02163601YS02164001    1.00   0.00  0.08  0.00  0.92  0.00  0.00  0.00  0.00  0.00
  YS02164001YS02001641    1.00   0.01  0.07  0.00  0.92  0.00  0.00  0.00  0.06  0.00
  YSB1154YSB6556          1.00   0.12  0.00  0.00  0.88  0.00  0.00  0.00  0.02  0.00
  YSB1171HS02004479       1.00   0.04  0.00  0.00  0.95  0.00  0.00  0.01  0.10  0.00
  YSB1174YSB1171          1.00   0.05  0.04  0.00  0.91  0.00  0.00  0.00  0.00  0.00
  YSB6556YSB1171          1.00   0.04  0.08  0.00  0.88  0.00  0.00  0.00  0.00  0.00
  
  
  *************************
  Conduit Surcharge Summary
  *************************
  
  ----------------------------------------------------------------------------
                                                           Hours        Hours 
                         --------- Hours Full --------   Above Full   Capacity
  Conduit                Both Ends  Upstream  Dnstream   Normal Flow   Limited
  ----------------------------------------------------------------------------
  HS02004478WS02006287        0.43      0.43      0.60      0.01         0.01
  HS02004479HS02004480        0.61      0.61      0.63      0.01         0.01
  HS02004480HS02004478        0.54      0.61      0.54      1.66         0.54
  HS02004770HS02004777        0.52      0.52      0.52      0.11         0.08
  HS02004777HS02004785        0.47      0.47      0.52      0.01         0.01
  HS02004785HS02004788        0.45      0.47      0.45      1.44         0.43
  HS02004788HS02004792        0.45      0.45      0.58      0.01         0.01
  HS02004792HS02004799        0.58      0.58      0.69      0.01         0.01
  HS02004799HS02004480        0.61      0.61      0.69      0.80         0.01
  HS02004802HS02004478        0.55      0.55      0.62      0.01         0.01
  HS02004807HS02004802        0.60      0.60      0.61      0.19         0.19
  HS02004817HS02004807        0.60      0.60      1.21      0.01         0.01
  HS02004817HS02004824        0.45      0.45      1.21      0.01         0.01
  HS02004824HS02004830        0.42      0.42      0.45      0.01         0.01
  HS02004830HS02004837        0.38      0.38      0.42      0.01         0.01
  HS02004837HS02004842        0.38      0.38      0.52      0.01         0.01
  HS02004842HS02004848        0.35      0.35      0.52      0.01         0.01
  HS02004848HS02004852        0.35      0.35      0.38      0.02         0.01
  HS02004852HS02004856        0.38      0.38      0.40      0.02         0.01
  HS02004856HS02004862        0.35      0.35      0.39      0.01         0.01
  HS02004862HS02004870        0.39      0.39      0.40      0.03         0.04
  HS02004870HS02004876        0.40      0.40      0.46      0.01         0.01
  HS02004876HS02004881        0.44      0.46      0.44      1.48         0.44
  HS02004881HS02006253        0.44      0.44      1.54      0.01         0.01
  HS02004901HS02004770        0.52      0.52      0.53      0.01         0.01
  WS02003072WS02003073        0.01      0.01      0.01      2.80         0.01
  WS02004401WS02004402        1.60      1.60      1.62      1.46         1.44
  WS02004402WS02004403        1.62      1.62      1.62      1.60         1.59
  WS02004403WS02004404        1.62      1.62      1.71      0.01         0.02
  WS02004404WS02004405        1.69      1.71      1.69      3.29         1.69
  WS02004405WS02004406        1.67      1.69      1.67      1.85         1.67
  WS02004406WS02004407        0.01      0.01      1.67      0.01         0.01
  WS02004407WS02004409        0.01      0.01      0.97      0.01         0.01
  WS02004409WS02004410        0.91      0.97      0.91      1.53         0.91
  WS02004410WS02004411        0.82      0.91      0.82      1.57         0.82
  WS02004411WS02004412        0.72      0.82      0.72      1.60         0.72
  WS02004412WS02004413        0.72      0.72      1.39      0.01         0.01
  WS02004413WS02003067        0.01      0.01      1.39      0.01         0.01
  WS02006109WS02006110        1.84      1.85      2.10      1.86         0.01
  WS02006110WS02006113        1.26      1.26      2.09      0.29         0.01
  WS02006111WS02006112        1.21      1.22      2.51      0.01         0.01
  WS02006112WS02006115        1.53      1.53      1.88      0.01         0.01
  WS02006113WS02006111        1.23      1.26      1.23      1.46         1.23
  WS02006115WS02006116        1.54      1.54      1.55      1.53         1.50
  WS02006116WS02004401        1.60      1.60      1.60      1.59         1.56
  WS02006228WS02006109        2.07      2.10      2.07      2.86         2.07
  WS02006229WS02006228        2.07      2.08      2.07      2.27         2.07
  WS02006230WS02006229        2.13      2.18      2.13      3.86         1.13
  WS02006231WS02006230        1.70      1.70      1.76      3.09         0.92
  WS02006232WS02006231        1.74      1.74      1.89      0.01         0.11
  WS02006234WS02006232        1.80      1.80      1.89      0.01         0.01
  WS02006235WS02006234        1.79      1.79      1.80      2.85         0.89
  WS02006238WS02006235        1.80      1.80      1.83      0.01         0.28
  WS02006239WS02006238        1.80      1.80      1.81      0.76         0.01
  WS02006240WS02006239        1.79      1.79      1.79      0.75         0.01
  WS02006242WS02006240        1.78      1.78      1.81      1.22         0.87
  WS02006243WS02006242        1.74      1.74      1.80      0.01         0.01
  WS02006245WS02006243        1.71      1.71      1.73      0.01         0.01
  WS02006247WS02006245        1.70      1.71      1.70      2.71         0.47
  WS02006248WS02006247        1.66      1.66      1.70      0.01         0.01
  WS02006249WS02006248        1.65      1.65      1.67      1.49         0.01
  WS02006251WS02006249        1.65      1.65      1.67      1.15         1.13
  WS02006252WS02006251        1.53      1.53      1.58      0.01         0.01
  WS02006253WS02006251        1.64      1.64      1.66      0.74         0.01
  WS02006256WS02006235        3.15      3.16      7.38      0.78         0.01
  WS02006280WS02006229        0.73      0.73      0.89      0.01         0.01
  WS02006284WS02006280        0.63      0.63      0.71      0.01         0.01
  WS02006287WS02006284        0.54      0.54      0.64      0.23         0.23
  YS02001580YS02001583        0.53      0.53      0.57      0.01         0.01
  YS02001583YS02001586        0.54      0.54      0.65      0.01         0.01
  YS02001586YS02001590        0.66      0.66      0.73      0.01         0.01
  YS02001590YS02001593        0.74      0.74      0.75      0.80         0.01
  YS02001593YS02001596        0.74      0.74      0.84      0.01         0.01
  YS02001596YS02001600        0.89      0.89      1.01      0.01         0.01
  YS02001600YS02001601        1.08      1.08      1.44      0.01         0.01
  YS02001601YS02001602        1.30      1.30      1.48      1.04         0.01
  YS02001602YS02001605        1.23      1.23      1.30      2.19         0.01
  YS02001605YS02001607        1.17      1.23      1.17      1.40         1.17
  YS02001607YS02001610        0.66      0.66      0.69      0.01         0.01
  YS02001610YS02001613        0.65      0.65      0.69      0.01         0.01
  YS02001613YS02001616        0.60      0.60      0.65      0.01         0.01
  YS02001616YS02001619        0.59      0.59      0.60      0.01         0.01
  YS02001619YS02001622        0.58      0.59      0.58      0.78         0.56
  YS02001622YS02001625        0.58      0.58      0.79      0.01         0.01
  YS02001625YS02001629        0.47      0.47      0.79      0.01         0.01
  YS02001629YS02163301        0.77      0.77      0.78      0.37         0.37
  YS02001633YS02163601        0.80      0.80      0.83      0.51         0.52
  YS02001641YS02001644        0.61      0.67      0.61      1.51         0.60
  YS02001644YS02001647        0.35      0.35      0.61      0.04         0.01
  YS02001647YS02001649        0.35      0.35      0.39      0.01         0.01
  YS02001649YS02001757        0.38      0.39      0.38      0.42         0.33
  YS02001652YS02001649        0.28      0.28      0.39      0.01         0.01
  YS02001655YS02001652        0.18      0.18      0.26      0.01         0.01
  YS02001658YS02001655        0.09      0.09      0.18      0.01         0.01
  YS02001661YS02001658        0.01      0.01      0.09      0.01         0.01
  YS02001664YS02001661        0.01      0.01      0.02      0.01         0.01
  YS02001745YS02001748        0.01      0.01      0.01      0.01         0.01
  YS02001748YS02001751        0.06      0.06      0.11      0.01         0.01
  YS02001751YS02001754        0.11      0.11      0.18      0.01         0.01
  YS02001754YS02001757        0.20      0.20      0.38      0.01         0.01
  YS02001757CaochengTiaoxuchi        0.01      0.38      1.26      0.46         0.01
  YS02001759YS02001757        0.32      0.32      0.38      0.01         0.01
  YS02001762YS02001759        0.30      0.30      0.32      0.01         0.02
  YS02001765YS02001762        0.27      0.27      0.30      0.01         0.01
  YS02001767YS02001765        0.26      0.26      0.27      0.01         0.04
  YS02001770YS02001767        0.26      0.27      0.26      0.55         0.26
  YS02001774YS02001770        0.25      0.25      0.30      0.01         0.01
  YS02001779YS02001774        0.20      0.20      0.30      0.01         0.01
  YS02001783YS02001784        0.47      0.50      0.47      0.64         0.47
  YS02001784YS02001785        0.37      0.47      0.37      0.88         0.37
  YS02001786YS02001788        0.01      0.37      0.01      0.74         0.01
  YS02001790YS02001791        0.01      0.01      0.01      0.46         0.01
  YS02001793JiankangQianchi        0.01      0.01      0.18      0.01         0.01
  YS02001882YS02001884        0.44      0.44      0.45      0.01         0.01
  YS02001884YS02001887        0.47      0.47      0.49      0.01         0.01
  YS02001887YS02001890        0.50      0.50      0.51      0.05         0.01
  YS02001890YS02001895        0.43      0.43      0.53      0.01         0.01
  YS02001895YS02001898        0.42      0.42      0.43      0.01         0.01
  YS02001898YS02001901        0.43      0.43      0.47      0.01         0.01
  YS02001901YS02001904        0.46      0.46      0.47      0.01         0.01
  YS02001904YS02001907        0.46      0.46      0.71      0.01         0.01
  YS02001907YS02006553        0.88      0.88      0.95      0.01         0.01
  YS02001910YS02001907        0.53      0.53      0.69      0.01         0.01
  YS02001915YS02001910        0.44      0.44      0.53      0.01         0.01
  YS02001918YS02001915        0.36      0.36      0.44      0.01         0.01
  YS02001920YS02001918        0.36      0.36      0.37      0.01         0.01
  YS02001923YS02001920        0.31      0.31      0.37      0.01         0.01
  YS02001926YS02001923        0.01      0.01      0.02      0.01         0.01
  YS02001929YS02001926        0.01      0.01      0.02      0.01         0.01
  YS02006553YS02006556        0.61      0.61      0.71      0.01         0.01
  YS02006556YS02006558        0.66      0.66      0.73      0.01         0.01
  YS02006558YS02006561        0.39      0.60      0.39      0.83         0.39
  YS02006561YS02001783        0.32      0.32      0.50      0.01         0.01
  YS02163301YS02001633        0.78      0.78      0.82      0.01         0.01
  YS02163601YS02164001        0.69      0.69      0.83      0.31         0.01
  YS02164001YS02001641        0.67      0.69      0.67      0.78         0.57
  YSB1154YSB6556              0.66      0.66      0.82      0.01         0.01
  YSB1171HS02004479           0.56      0.56      0.83      0.01         0.01
  YSB1174YSB1171              0.73      0.73      1.10      0.01         0.01
  YSB6556YSB1171              0.66      0.66      1.28      0.01         0.01
  
  
  ***************
  Pumping Summary
  ***************
  
  ---------------------------------------------------------------------------------------------------------
                                                  Min       Avg       Max     Total     Power    % Time Off
                        Percent   Number of      Flow      Flow      Flow    Volume     Usage    Pump Curve
  Pump                 Utilized   Start-Ups       LPS       LPS       LPS  10^6 ltr     Kw-hr    Low   High
  ---------------------------------------------------------------------------------------------------------
  CC-R1                   42.71          13      0.00    601.83    683.00     5.783     98.17    0.0   72.8
  CC-R2                   80.21          11      0.00    369.72    683.00     5.003     83.11    0.0   92.0
  CC-S1                   23.96           5      0.00    200.00    200.00     1.380     10.00    0.0   21.7
  CC-S2                   58.33          12      0.00     99.00    200.00     0.906      6.18    0.0   82.1
  JK-R1                   81.25          10      0.00    134.13   1000.00     2.495      7.37    0.0    0.0
  JK-R2                   44.79           8      0.00    212.36   1000.00     2.534      6.10    0.0    0.0
  JK-S                    39.58          11      0.00    117.76    300.00     1.278     28.70    0.0    0.0
  XR-1                    97.91           1      0.00     95.00     95.00     2.679      9.64    0.0    0.0
  XR-2                    93.95           1      0.00     95.00     95.00     2.570      8.80    0.0    0.0
  XR-3                     0.00           0      0.00      0.00      0.00     0.000      0.00    0.0    0.0
  XR-4                     0.00           0      0.00      0.00      0.00     0.000      0.00    0.0    0.0
  

  Analysis begun on:  Thu Jun 15 06:46:32 2023
  Analysis ended on:  Thu Jun 15 06:46:36 2023
  Total elapsed time: 00:00:04