
  OWA STORM WATER MANAGEMENT MODEL - VERSION v5.2.3 (OWA 2023-03-28)
  ------------------------------------------------------------

  WARNING 04: minimum elevation drop used for Conduit WS02004404WS02004405
  WARNING 03: negative offset ignored for Link YS02001904YS02001907
  
  ****************
  Analysis Options
  ****************
  Flow Units ............... LPS
  Process Models:
    Rainfall/Runoff ........ YES
    RDII ................... NO
    Snowmelt ............... NO
    Groundwater ............ NO
    Flow Routing ........... YES
    Ponding Allowed ........ NO
    Water Quality .......... NO
  Infiltration Method ...... HORTON
  Flow Routing Method ...... DYNWAVE
  Surcharge Method ......... EXTRAN
  Starting Date ............ 08/28/2015 08:00:00
  Ending Date .............. 08/28/2015 16:00:00
  Antecedent Dry Days ...... 8.0
  Report Time Step ......... 00:01:00
  Wet Time Step ............ 00:01:00
  Dry Time Step ............ 00:01:00
  Routing Time Step ........ 30.00 sec
  Variable Time Step ....... YES
  Maximum Trials ........... 8
  Number of Threads ........ 1
  Head Tolerance ........... 0.001500 m
  
  
  **************************        Volume         Depth
  Runoff Quantity Continuity     hectare-m            mm
  **************************     ---------       -------
  Total Precipitation ......         2.627        43.363
  Evaporation Loss .........         0.000         0.000
  Infiltration Loss ........         0.229         3.787
  Surface Runoff ...........         2.337        38.580
  Final Storage ............         0.061         1.006
  Continuity Error (%) .....        -0.024
  
  
  **************************        Volume        Volume
  Flow Routing Continuity        hectare-m      10^6 ltr
  **************************     ---------     ---------
  Dry Weather Inflow .......         0.630         6.296
  Wet Weather Inflow .......         2.337        23.372
  Groundwater Inflow .......         0.000         0.000
  RDII Inflow ..............         0.000         0.000
  External Inflow ..........         0.105         1.045
  External Outflow .........         2.563        25.631
  Flooding Loss ............         0.788         7.884
  Evaporation Loss .........         0.000         0.000
  Exfiltration Loss ........         0.000         0.000
  Initial Stored Volume ....         0.303         3.031
  Final Stored Volume ......         0.178         1.778
  Continuity Error (%) .....        -4.588
  
  
  *************************
  Highest Continuity Errors
  *************************
  Node JK-storage (-28.35%)
  Node YS02001884 (5.10%)
  Node CC-storage (-4.57%)
  Node YS02001583 (-4.15%)
  Node HS02004842 (2.06%)
  
  
  ***************************
  Time-Step Critical Elements
  ***************************
  Link WS02006252WS02006251 (65.65%)
  Link WS02006280WS02006229 (13.45%)
  Link YS02001793JiankangQianchi (7.42%)
  Link WS02006238WS02006235 (3.73%)
  Link YS02001791YS02001793 (1.76%)
  
  
  ********************************
  Highest Flow Instability Indexes
  ********************************
  Link WS02006113WS02006111 (34)
  Link WS02006111WS02006112 (18)
  Link WS02006252WS02006251 (12)
  Link WS02004404WS02004405 (10)
  Link WS02006238WS02006235 (10)
  
  
  *********************************
  Most Frequent Nonconverging Nodes
  *********************************
  Node CC-1 (7.60%)
  Node CC-2 (7.60%)
  Node JK-1 (7.60%)
  Node JK-2 (7.60%)
  Node WSC (7.60%)
  
  
  *************************
  Routing Time Step Summary
  *************************
  Minimum Time Step           :     0.00 sec
  Average Time Step           :     1.48 sec
  Maximum Time Step           :    30.00 sec
  % of Time in Steady State   :     0.00
  Average Iterations per Step :     2.77
  % of Steps Not Converging   :     7.60
  Time Step Frequencies       :
     30.000 - 13.228 sec      :     0.01 %
     13.228 -  5.833 sec      :     1.44 %
      5.833 -  2.572 sec      :    13.29 %
      2.572 -  1.134 sec      :    21.72 %
      1.134 -  0.500 sec      :    63.55 %
  
  
  ***************************
  Subcatchment Runoff Summary
  ***************************
  
  ------------------------------------------------------------------------------------------------------------------------------
                            Total      Total      Total      Total     Imperv       Perv      Total       Total     Peak  Runoff
                           Precip      Runon       Evap      Infil     Runoff     Runoff     Runoff      Runoff   Runoff   Coeff
  Subcatchment                 mm         mm         mm         mm         mm         mm         mm    10^6 ltr      LPS
  ------------------------------------------------------------------------------------------------------------------------------
  sub0                      43.36       0.00       0.00       0.94      39.08       2.10      41.18        0.03    28.41   0.950
  sub1                      43.36       0.00       0.00       1.61      37.34       3.16      40.50        0.27   189.47   0.934
  sub10                     43.36       0.00       0.00       1.13      38.61       2.34      40.95        0.45   324.63   0.944
  sub11                     43.36       0.00       0.00       1.11      38.63       2.36      40.99        0.48   362.80   0.945
  sub12                     43.36       0.00       0.00       1.81      36.55       3.83      40.38        0.35   292.65   0.931
  sub14                     43.36       0.00       0.00       1.27      38.20       2.63      40.84        0.39   288.41   0.942
  sub15                     43.36       0.00       0.00       5.07      29.38       7.94      37.33        0.64   437.68   0.861
  sub16                     43.36       0.00       0.00       5.22      28.14       9.10      37.24        0.39   298.73   0.859
  sub17                     43.36       0.00       0.00       5.09      28.56       8.79      37.35        0.32   242.29   0.861
  sub2                      43.36       0.00       0.00       7.22      26.41       8.83      35.24        0.33   189.81   0.813
  sub22                     43.36       0.00       0.00       7.69      23.94      10.96      34.90        2.20  1457.20   0.805
  sub23                     43.36       0.00       0.00       6.26      26.46       9.78      36.24        1.73  1215.23   0.836
  sub3                      43.36       0.00       0.00       7.79      26.37       8.26      34.63        0.78   405.93   0.799
  sub4                      43.36       0.00       0.00       1.82      37.18       2.95      40.13        0.84   450.28   0.925
  sub5                      43.36       0.00       0.00       0.98      39.02       2.05      41.07        0.47   327.44   0.947
  sub60                     43.36       0.00       0.00       1.71      36.95       3.50      40.45        0.53   411.41   0.933
  sub61                     43.36       0.00       0.00       2.48      34.86       4.89      39.75        0.73   570.59   0.917
  sub62                     43.36       0.00       0.00       1.14      38.61       2.33      40.94        1.12   793.91   0.944
  sub63                     43.36       0.00       0.00       4.63      29.82       7.94      37.76        0.86   633.92   0.871
  sub64                     43.36       0.00       0.00       2.34      35.65       4.17      39.82        0.96   637.55   0.918
  sub65                     43.36       0.00       0.00       2.02      36.47       3.62      40.09        1.10   711.60   0.924
  sub66                     43.36       0.00       0.00       5.74      29.71       6.84      36.55        1.70   913.37   0.843
  sub67                     43.36       0.00       0.00       1.09      38.65       2.38      41.03        0.76   622.13   0.946
  sub68                     43.36       0.00       0.00       2.06      36.10       4.01      40.12        1.10   817.41   0.925
  sub69                     43.36       0.00       0.00       1.83      36.75       4.68      41.42        1.53   947.57   0.955
  sub7                      43.36       0.00       0.00       1.25      38.22       2.66      40.87        0.14   107.62   0.943
  sub70                     43.36       0.00       0.00       6.11      28.45       8.64      37.09        1.07   510.95   0.855
  sub71                     43.36       0.00       0.00       1.17      38.56       2.30      40.86        1.07   690.39   0.942
  sub72                     43.36       0.00       0.00       1.04      38.92       1.99      40.91        0.56   332.67   0.944
  sub8                      43.36       0.00       0.00       1.26      38.21       2.64      40.85        0.26   196.56   0.942
  sub9                      43.36       0.00       0.00       1.27      38.20       2.64      40.84        0.20   146.73   0.942
  
  
  ******************
  Node Depth Summary
  ******************
  
  ---------------------------------------------------------------------------------
                                 Average  Maximum  Maximum  Time of Max    Reported
                                   Depth    Depth      HGL   Occurrence   Max Depth
  Node                 Type       Meters   Meters   Meters  days hr:min      Meters
  ---------------------------------------------------------------------------------
  HS02004478           JUNCTION     0.15     1.57    10.80     0  02:22        1.55
  HS02004479           JUNCTION     0.22     1.69    10.90     0  02:22        1.67
  HS02004480           JUNCTION     0.19     1.67    10.91     0  02:22        1.62
  HS02004770           JUNCTION     0.20     1.42    11.25     0  02:19        1.42
  HS02004777           JUNCTION     0.23     1.48    11.28     0  02:19        1.46
  HS02004785           JUNCTION     0.13     1.49    11.39     0  02:19        1.35
  HS02004788           JUNCTION     0.10     1.42    11.32     0  02:19        1.36
  HS02004792           JUNCTION     0.13     1.60    11.12     0  02:19        1.60
  HS02004799           JUNCTION     0.24     1.76    10.97     0  02:19        1.76
  HS02004802           JUNCTION     0.25     1.79    10.92     0  02:22        1.74
  HS02004807           JUNCTION     0.22     1.92    11.09     0  02:22        1.84
  HS02004817           JUNCTION     0.52     2.44    11.28     0  02:22        2.21
  HS02004824           JUNCTION     0.10     2.01    11.41     0  02:22        1.72
  HS02004830           JUNCTION     0.11     2.03    11.50     0  02:22        1.66
  HS02004837           JUNCTION     0.09     1.97    11.55     0  02:22        1.54
  HS02004842           JUNCTION     0.37     2.22    11.49     0  02:22        1.84
  HS02004848           JUNCTION     0.06     2.07    11.67     0  02:22        1.53
  HS02004852           JUNCTION     0.07     2.12    11.63     0  02:22        1.59
  HS02004856           JUNCTION     0.13     2.07    11.50     0  02:22        1.65
  HS02004862           JUNCTION     0.08     2.00    11.38     0  02:22        1.62
  HS02004870           JUNCTION     0.07     2.10    11.39     0  02:22        1.60
  HS02004876           JUNCTION     0.12     2.10    11.13     0  02:22        1.71
  HS02004881           JUNCTION     0.06     2.11    11.14     0  02:22        1.51
  HS02004901           JUNCTION     0.21     1.42    11.24     0  02:19        1.42
  WS02001211           JUNCTION     0.62     0.81     5.64     0  02:28        0.81
  WS02001212           JUNCTION     0.36     0.57     5.63     0  02:28        0.57
  WS02001213           JUNCTION     0.58     0.86     5.62     0  02:28        0.86
  WS02003059           JUNCTION     0.65     0.93     5.62     0  02:26        0.93
  WS02003060           JUNCTION     0.38     0.68     5.61     0  02:26        0.68
  WS02003066           JUNCTION     0.23     0.45     6.01     0  02:25        0.45
  WS02003067           JUNCTION     0.56     0.89     6.21     0  02:25        0.88
  WS02003069           JUNCTION     0.42     0.77     5.36     0  02:27        0.77
  WS02003072           JUNCTION     0.48     0.81     5.18     0  02:27        0.81
  WS02003073           JUNCTION     0.29     0.51     4.58     0  02:28        0.51
  WS02004138           JUNCTION     0.13     0.14     7.39     0  00:31        0.14
  WS02004139           JUNCTION     0.56     0.74     5.65     0  02:28        0.74
  WS02004401           JUNCTION     0.75     1.91     7.91     0  02:12        1.87
  WS02004402           JUNCTION     0.77     1.82     7.78     0  02:12        1.80
  WS02004403           JUNCTION     0.78     1.75     7.68     0  02:12        1.75
  WS02004404           JUNCTION     0.85     1.79     7.64     0  02:12        1.79
  WS02004405           JUNCTION     0.84     1.69     7.54     0  02:12        1.69
  WS02004406           JUNCTION     0.84     1.64     7.47     0  02:40        1.64
  WS02004407           JUNCTION     0.25     0.90     7.21     0  02:25        0.89
  WS02004409           JUNCTION     0.52     1.37     7.14     0  02:25        1.37
  WS02004410           JUNCTION     0.53     1.28     7.00     0  02:25        1.27
  WS02004411           JUNCTION     0.54     1.19     6.87     0  02:25        1.19
  WS02004412           JUNCTION     0.55     1.10     6.74     0  02:25        1.09
  WS02004413           JUNCTION     0.69     1.14     6.61     0  02:25        1.14
  WS02006109           JUNCTION     0.90     2.64     9.26     0  02:19        2.64
  WS02006110           JUNCTION     0.86     2.41     9.00     0  02:12        2.41
  WS02006111           JUNCTION     0.35     1.87     8.57     0  02:12        1.87
  WS02006112           JUNCTION     0.94     2.68     8.56     0  00:00        2.53
  WS02006113           JUNCTION     0.44     1.90     8.79     0  02:12        1.90
  WS02006115           JUNCTION     0.65     2.12     8.26     0  02:12        2.12
  WS02006116           JUNCTION     0.73     2.05     8.09     0  02:12        2.05
  WS02006228           JUNCTION     0.93     3.03     9.68     0  02:22        3.02
  WS02006229           JUNCTION     0.92     3.23     9.92     0  02:22        3.20
  WS02006230           JUNCTION     0.88     2.65     9.39     0  02:16        2.65
  WS02006231           JUNCTION     0.61     2.20     9.33     0  02:40        2.20
  WS02006232           JUNCTION     0.72     2.18     9.22     0  02:15        2.18
  WS02006234           JUNCTION     0.62     1.96     9.12     0  02:10        1.96
  WS02006235           JUNCTION     0.64     1.99     9.16     0  02:10        1.94
  WS02006238           JUNCTION     0.66     2.01     9.15     0  02:10        1.93
  WS02006239           JUNCTION     0.62     2.02     9.23     0  02:40        2.02
  WS02006240           JUNCTION     0.57     2.10     9.39     0  02:40        2.10
  WS02006242           JUNCTION     0.62     1.55     8.82     0  02:10        1.55
  WS02006243           JUNCTION     0.51     1.48     8.90     0  02:40        1.48
  WS02006245           JUNCTION     0.50     1.29     8.77     0  02:10        1.27
  WS02006247           JUNCTION     0.51     1.25     8.75     0  03:10        1.23
  WS02006248           JUNCTION     0.46     1.10     8.69     0  01:56        1.10
  WS02006249           JUNCTION     0.48     1.09     8.69     0  01:55        1.09
  WS02006251           JUNCTION     0.51     2.21     9.88     0  02:22        2.10
  WS02006252           JUNCTION     0.36     1.50     9.74     0  02:22        1.50
  WS02006253           JUNCTION     0.56     3.52    11.16     0  02:22        2.80
  WS02006256           JUNCTION     0.93     2.35     9.28     0  00:11        2.35
  WS02006280           JUNCTION     0.20     1.75    10.02     0  02:22        1.72
  WS02006284           JUNCTION     0.47     1.94    10.34     0  02:22        1.91
  WS02006287           JUNCTION     0.21     1.73    10.69     0  02:22        1.70
  WSF200               JUNCTION     0.23     0.52     5.75     0  02:26        0.52
  YS02001580           JUNCTION     0.04     1.05     9.59     0  02:19        0.77
  YS02001583           JUNCTION     0.07     1.14     9.64     0  02:19        0.82
  YS02001586           JUNCTION     0.13     1.13     9.30     0  02:19        1.13
  YS02001590           JUNCTION     0.22     1.38     9.24     0  02:19        1.37
  YS02001593           JUNCTION     0.15     1.31     9.17     0  02:19        1.28
  YS02001596           JUNCTION     0.19     1.67     9.09     0  02:19        1.66
  YS02001600           JUNCTION     0.24     1.87     9.00     0  02:19        1.86
  YS02001601           JUNCTION     0.44     2.06     8.90     0  02:18        2.06
  YS02001602           JUNCTION     0.36     1.87     8.77     0  02:18        1.87
  YS02001605           JUNCTION     0.34     1.78     8.68     0  02:18        1.78
  YS02001607           JUNCTION     0.35     1.65     8.50     0  02:25        1.65
  YS02001610           JUNCTION     0.39     1.68     8.48     0  02:18        1.68
  YS02001613           JUNCTION     0.35     1.69     8.53     0  02:18        1.67
  YS02001616           JUNCTION     0.28     1.61     8.52     0  02:18        1.60
  YS02001619           JUNCTION     0.26     1.61     8.54     0  02:23        1.61
  YS02001622           JUNCTION     0.24     1.58     8.48     0  02:25        1.58
  YS02001625           JUNCTION     0.51     1.78     8.38     0  02:21        1.78
  YS02001629           JUNCTION     0.37     1.85     8.40     0  02:18        1.85
  YS02001633           JUNCTION     0.44     2.01     8.47     0  02:23        1.99
  YS02001641           JUNCTION     0.43     1.95     8.39     0  02:24        1.93
  YS02001644           JUNCTION     0.43     1.92     8.35     0  02:24        1.92
  YS02001647           JUNCTION     0.23     1.76     8.37     0  02:24        1.72
  YS02001649           JUNCTION     0.30     1.93     8.32     0  02:24        1.91
  YS02001652           JUNCTION     0.18     1.80     8.40     0  02:24        1.72
  YS02001655           JUNCTION     0.11     1.81     8.66     0  02:24        1.51
  YS02001658           JUNCTION     0.06     1.76     8.90     0  02:24        1.24
  YS02001661           JUNCTION     0.11     1.08     8.48     0  02:25        1.02
  YS02001664           JUNCTION     0.04     0.51     8.44     0  02:25        0.43
  YS02001745           JUNCTION     0.04     0.72     8.24     0  02:25        0.70
  YS02001748           JUNCTION     0.06     1.67     8.75     0  02:24        1.13
  YS02001751           JUNCTION     0.09     1.66     8.54     0  02:24        1.35
  YS02001754           JUNCTION     0.16     1.71     8.32     0  02:24        1.61
  YS02001757           JUNCTION     0.34     1.96     8.22     0  02:24        1.92
  YS02001759           JUNCTION     0.28     2.21     8.57     0  02:23        2.21
  YS02001762           JUNCTION     0.26     2.15     8.55     0  02:23        2.15
  YS02001765           JUNCTION     0.24     2.10     8.55     0  02:23        2.10
  YS02001767           JUNCTION     0.23     1.93     8.41     0  02:23        1.93
  YS02001770           JUNCTION     0.24     1.93     8.42     0  02:24        1.88
  YS02001774           JUNCTION     0.31     1.99     8.41     0  02:24        1.95
  YS02001779           JUNCTION     0.14     1.68     8.37     0  02:23        1.68
  YS02001783           JUNCTION     0.18     1.37     7.51     0  02:22        1.22
  YS02001784           JUNCTION     0.20     1.20     7.26     0  02:22        1.11
  YS02001786           JUNCTION     0.17     0.94     6.97     0  02:22        0.87
  YS02001788           JUNCTION     0.12     0.62     6.60     0  02:24        0.62
  YS02001790           JUNCTION     0.15     0.73     6.37     0  02:24        0.71
  YS02001791           JUNCTION     0.09     0.44     5.91     0  02:24        0.42
  YS02001793           JUNCTION     0.06     0.25     5.08     0  02:22        0.23
  YS02001882           JUNCTION     0.23     1.74     8.46     0  02:22        1.74
  YS02001884           JUNCTION     0.32     1.82     8.44     0  02:22        1.82
  YS02001887           JUNCTION     0.39     1.86     8.40     0  02:22        1.86
  YS02001890           JUNCTION     0.42     1.81     8.32     0  02:22        1.81
  YS02001895           JUNCTION     0.20     1.57     8.32     0  02:25        1.57
  YS02001898           JUNCTION     0.21     1.56     8.30     0  02:22        1.56
  YS02001901           JUNCTION     0.32     1.68     8.29     0  02:22        1.67
  YS02001904           JUNCTION     0.30     1.64     8.27     0  02:22        1.63
  YS02001907           JUNCTION     0.61     1.96     8.25     0  02:21        1.96
  YS02001910           JUNCTION     0.42     1.99     8.49     0  02:23        1.99
  YS02001915           JUNCTION     0.23     1.95     8.67     0  02:23        1.95
  YS02001918           JUNCTION     0.11     1.81     8.88     0  02:22        1.81
  YS02001920           JUNCTION     0.19     2.14     9.15     0  02:22        1.72
  YS02001923           JUNCTION     0.08     2.03     9.29     0  02:22        1.45
  YS02001926           JUNCTION     0.12     1.90     9.35     0  02:22        1.16
  YS02001929           JUNCTION     0.06     1.78     9.47     0  02:22        1.17
  YS02006553           JUNCTION     0.62     1.99     8.27     0  02:22        1.96
  YS02006556           JUNCTION     0.59     2.00     8.31     0  02:22        1.95
  YS02006558           JUNCTION     0.64     2.05     8.31     0  02:22        2.00
  YS02006561           JUNCTION     0.11     1.08     7.74     0  02:22        0.89
  YS02163301           JUNCTION     0.39     1.92     8.43     0  02:25        1.92
  YS02163601           JUNCTION     0.48     2.02     8.42     0  02:23        2.01
  YS02164001           JUNCTION     0.42     1.94     8.40     0  02:24        1.92
  YSB1154              JUNCTION     0.35     1.95    11.00     0  02:19        1.93
  YSB1171              JUNCTION     0.50     1.95    10.85     0  02:19        1.95
  YSB1174              JUNCTION     0.31     1.82    10.93     0  02:23        1.82
  YSB6556              JUNCTION     0.25     1.79    10.96     0  02:19        1.75
  CC-1                 OUTFALL      0.00     0.00     0.00     0  00:00        0.00
  CC-2                 OUTFALL      0.00     0.00     0.00     0  00:00        0.00
  JK-1                 OUTFALL      0.00     0.00     0.00     0  00:00        0.00
  JK-2                 OUTFALL      0.00     0.00     0.00     0  00:00        0.00
  WSC                  OUTFALL      0.29     0.51     1.18     0  02:29        0.51
  CC-storage           STORAGE      0.66     1.73     7.23     0  03:10        1.73
  JK-storage           STORAGE      0.11     3.00     3.80     0  00:05        3.00
  XR-storage           STORAGE      7.88     9.26     7.26     0  08:00        9.26
  
  
  *******************
  Node Inflow Summary
  *******************
  
  -------------------------------------------------------------------------------------------------
                                  Maximum  Maximum                  Lateral       Total        Flow
                                  Lateral    Total  Time of Max      Inflow      Inflow     Balance
                                   Inflow   Inflow   Occurrence      Volume      Volume       Error
  Node                 Type           LPS      LPS  days hr:min    10^6 ltr    10^6 ltr     Percent
  -------------------------------------------------------------------------------------------------
  HS02004478           JUNCTION      0.00  2280.48     0  02:25           0         6.5      -0.012
  HS02004479           JUNCTION      0.00   458.64     0  02:22           0       0.644       0.109
  HS02004480           JUNCTION      0.00  2101.27     0  02:21           0        4.92       0.053
  HS02004770           JUNCTION   1215.23  1215.23     0  02:25        1.73        1.93       0.144
  HS02004777           JUNCTION      0.03   750.32     0  02:19    0.000864        1.48       0.346
  HS02004785           JUNCTION      0.15   756.23     0  02:19     0.00432        1.48       0.029
  HS02004788           JUNCTION    439.35   869.22     0  02:19        0.69        2.17      -0.006
  HS02004792           JUNCTION   1457.48  2213.45     0  02:25        2.21        4.38      -0.001
  HS02004799           JUNCTION    288.41  1742.89     0  02:20       0.389        4.31       0.057
  HS02004802           JUNCTION      0.00   960.63     0  02:25           0        1.62       0.246
  HS02004807           JUNCTION    362.80   959.28     0  02:25       0.476        1.66       0.247
  HS02004817           JUNCTION      0.60   605.81     0  02:25      0.0173        1.25       1.383
  HS02004824           JUNCTION    450.33   642.90     0  02:20       0.838        1.39       0.027
  HS02004830           JUNCTION      0.15   639.23     0  02:20     0.00432       0.713       0.169
  HS02004837           JUNCTION    330.98   842.27     0  02:20       0.635       0.985       0.072
  HS02004842           JUNCTION      0.00   844.35     0  02:20           0       0.628       2.104
  HS02004848           JUNCTION    405.93  1084.68     0  02:22        0.78        1.26      -0.011
  HS02004852           JUNCTION      0.00  1080.65     0  02:22           0        1.13      -0.001
  HS02004856           JUNCTION    146.73  1185.96     0  02:22       0.196        1.32       0.065
  HS02004862           JUNCTION    190.01  1213.94     0  02:22       0.334        1.66      -0.026
  HS02004870           JUNCTION    196.56  1346.26     0  02:22       0.261        1.92      -0.015
  HS02004876           JUNCTION    189.47  1334.75     0  02:22       0.269        2.19       0.033
  HS02004881           JUNCTION    107.62  1420.45     0  02:22       0.138        2.32       0.008
  HS02004901           JUNCTION    298.73   530.58     0  02:26        0.39       0.559       0.294
  WS02001211           JUNCTION      7.35   205.93     0  02:53       0.212        5.44       0.612
  WS02001212           JUNCTION      0.00   213.93     0  02:54           0        5.41       0.290
  WS02001213           JUNCTION      0.00   220.26     0  02:54           0        5.39       0.332
  WS02003059           JUNCTION      0.00   226.58     0  02:53           0        5.38       0.595
  WS02003060           JUNCTION     16.53  1483.16     0  02:26       0.476          14       0.105
  WS02003066           JUNCTION      0.00  1283.58     0  02:25           0        8.16       0.018
  WS02003067           JUNCTION      0.00  1282.72     0  02:25           0        8.17       0.052
  WS02003069           JUNCTION      0.32  1483.38     0  02:27     0.00922          14       0.109
  WS02003072           JUNCTION      0.00  1483.24     0  02:27           0          14       0.149
  WS02003073           JUNCTION      1.82  1485.34     0  02:28      0.0524          14       0.154
  WS02004138           JUNCTION      0.00   190.00     0  00:29           0        5.25       0.053
  WS02004139           JUNCTION      0.32   190.32     0  00:31     0.00924        5.26       0.508
  WS02004401           JUNCTION      0.00  1284.11     0  02:25           0        8.28       0.137
  WS02004402           JUNCTION      0.00  1284.38     0  02:25           0        8.27       0.135
  WS02004403           JUNCTION      0.00  1285.11     0  02:25           0        8.26       0.133
  WS02004404           JUNCTION      0.16  1286.54     0  02:25     0.00467        8.25       0.108
  WS02004405           JUNCTION      0.04  1286.70     0  02:25      0.0011        8.24       0.155
  WS02004406           JUNCTION      0.00  1286.93     0  02:25           0        8.23       0.262
  WS02004407           JUNCTION      0.00  1286.93     0  02:25           0         8.2       0.017
  WS02004409           JUNCTION      0.00  1282.83     0  02:25           0         8.2       0.039
  WS02004410           JUNCTION      0.00  1282.86     0  02:25           0         8.2       0.056
  WS02004411           JUNCTION      0.00  1283.08     0  02:25           0        8.19       0.072
  WS02004412           JUNCTION      0.00  1282.69     0  02:25           0        8.19       0.097
  WS02004413           JUNCTION      0.00  1282.63     0  02:25           0        8.18       0.170
  WS02006109           JUNCTION      1.23  1308.01     0  00:00      0.0354        8.07       0.147
  WS02006110           JUNCTION      0.00  1122.04     0  02:35           0        7.91      -0.447
  WS02006111           JUNCTION      0.00  1176.04     0  00:00           0        7.94      -0.473
  WS02006112           JUNCTION    242.29  2307.30     0  00:00       0.321         8.3      -0.007
  WS02006113           JUNCTION      0.00  1122.12     0  02:34           0         7.9      -0.572
  WS02006115           JUNCTION      0.00  2152.75     0  00:00           0        8.28       0.053
  WS02006116           JUNCTION      0.00  1283.89     0  02:25           0        8.28       0.032
  WS02006228           JUNCTION      0.00  1277.01     0  02:25           0        8.01       0.077
  WS02006229           JUNCTION      0.00  2280.45     0  02:25           0        9.51       0.106
  WS02006230           JUNCTION     10.28  1015.65     0  02:25       0.296        4.55       0.120
  WS02006231           JUNCTION      0.00   453.30     0  02:24           0        3.69      -0.141
  WS02006232           JUNCTION      0.00   453.46     0  02:24           0        3.68       0.114
  WS02006234           JUNCTION      0.00   453.11     0  02:26           0        3.68      -0.056
  WS02006235           JUNCTION      0.00   415.47     0  02:35           0        3.61       0.073
  WS02006238           JUNCTION      0.00   415.89     0  02:35           0        3.17      -0.113
  WS02006239           JUNCTION      0.00   415.26     0  02:35           0        3.17      -0.265
  WS02006240           JUNCTION      0.00   414.98     0  02:35           0        3.17       0.012
  WS02006242           JUNCTION      0.00   415.34     0  02:35           0        3.17       0.047
  WS02006243           JUNCTION      0.00   381.37     0  04:19           0        2.92      -0.145
  WS02006245           JUNCTION      0.00   391.16     0  04:17           0        2.93       0.217
  WS02006247           JUNCTION      0.00   393.84     0  04:17           0        2.93       0.012
  WS02006248           JUNCTION      0.00   402.11     0  04:17           0         3.1      -0.046
  WS02006249           JUNCTION      0.00  1339.14     0  02:22           0        4.93       0.106
  WS02006251           JUNCTION      0.08  1448.23     0  02:22     0.00222        4.98       0.013
  WS02006252           JUNCTION      0.00   400.00     0  04:15           0        2.64      -0.344
  WS02006253           JUNCTION     28.41  1447.05     0  02:25      0.0334        2.39       0.006
  WS02006256           JUNCTION      0.00   300.00     0  01:45           0       0.698       0.143
  WS02006280           JUNCTION      0.00  2279.70     0  02:25           0        6.49       0.001
  WS02006284           JUNCTION      0.10  2280.19     0  02:25     0.00275        6.49       0.013
  WS02006287           JUNCTION      0.00  2281.05     0  02:25           0        6.49       0.012
  WSF200               JUNCTION      0.00  1283.71     0  02:26           0        8.16       0.008
  YS02001580           JUNCTION      0.00   130.21     0  02:19           0     0.00415      -1.857
  YS02001583           JUNCTION      0.00   160.00     0  02:18           0      0.0153      -3.989
  YS02001586           JUNCTION    510.95   511.07     0  02:26        1.07        1.08       0.118
  YS02001590           JUNCTION      0.00   317.97     0  02:35           0       0.972      -0.037
  YS02001593           JUNCTION      0.00   318.17     0  02:35           0       0.973       0.019
  YS02001596           JUNCTION      0.00   318.04     0  02:35           0       0.972       0.005
  YS02001600           JUNCTION      0.00   318.06     0  02:35           0       0.972       0.017
  YS02001601           JUNCTION    947.57  1264.76     0  02:26        1.53        2.51       0.036
  YS02001602           JUNCTION      0.00   513.69     0  02:18           0        1.82       0.027
  YS02001605           JUNCTION      0.00   513.00     0  02:18           0        1.76       0.036
  YS02001607           JUNCTION      0.00   512.95     0  02:18           0        1.76       0.110
  YS02001610           JUNCTION      0.00   515.00     0  02:18           0        1.77       0.129
  YS02001613           JUNCTION      0.00   516.52     0  02:18           0        1.57       0.110
  YS02001616           JUNCTION      0.00   517.54     0  02:18           0        1.57       0.031
  YS02001619           JUNCTION    913.37   933.12     0  02:21         1.7        3.26       0.000
  YS02001622           JUNCTION      0.00   932.77     0  02:21           0        3.25       0.005
  YS02001625           JUNCTION      0.00   978.79     0  02:26           0        3.26       0.352
  YS02001629           JUNCTION      0.00   937.13     0  02:18           0        2.92      -0.029
  YS02001633           JUNCTION    711.80  1403.59     0  02:21        1.11        4.01       0.089
  YS02001641           JUNCTION      0.00  1401.21     0  02:21           0        3.99       0.072
  YS02001644           JUNCTION    637.59  1831.04     0  02:21       0.958        4.94       0.068
  YS02001647           JUNCTION      0.00  1830.39     0  02:21           0         4.9       0.004
  YS02001649           JUNCTION      0.00  2138.12     0  02:22           0        5.77       0.008
  YS02001652           JUNCTION      0.00   735.68     0  02:25           0       0.862      -0.090
  YS02001655           JUNCTION      0.15   734.08     0  02:25     0.00443       0.862       0.020
  YS02001658           JUNCTION      0.00   731.78     0  02:25           0       0.857      -0.088
  YS02001661           JUNCTION      0.00   812.79     0  02:25           0       0.857       0.016
  YS02001664           JUNCTION    633.92   633.92     0  02:25       0.857       0.857      -0.007
  YS02001745           JUNCTION    411.42   411.42     0  02:25       0.532       0.532       0.279
  YS02001748           JUNCTION      0.04   616.71     0  02:24      0.0013       0.532      -0.352
  YS02001751           JUNCTION      0.01   474.35     0  02:25    0.000317       0.537       0.173
  YS02001754           JUNCTION      0.26   475.46     0  02:25     0.00749       0.549      -0.234
  YS02001757           JUNCTION      0.00  3484.44     0  02:25           0        8.19       0.038
  YS02001759           JUNCTION    570.63  1337.99     0  02:24       0.731        1.87      -0.004
  YS02001762           JUNCTION      0.00   784.89     0  02:26           0        1.14       0.008
  YS02001765           JUNCTION      0.00   784.94     0  02:26           0        1.14      -0.007
  YS02001767           JUNCTION      0.54   784.66     0  02:26      0.0154        1.14      -0.002
  YS02001770           JUNCTION    794.07   794.07     0  02:25        1.13        1.17      -0.021
  YS02001774           JUNCTION      0.00   340.16     0  02:23           0      0.0682       1.572
  YS02001779           JUNCTION      0.01   354.17     0  02:23    0.000144      0.0217      -2.966
  YS02001783           JUNCTION      0.00  1158.12     0  02:24           0        3.05       0.008
  YS02001784           JUNCTION      1.06  1159.81     0  02:24      0.0305        3.08       0.018
  YS02001786           JUNCTION      0.06  1159.41     0  02:24     0.00162        3.08       0.021
  YS02001788           JUNCTION      0.07  1159.78     0  02:24     0.00204        3.08       0.010
  YS02001790           JUNCTION      0.15  1167.75     0  02:25     0.00446        3.08       0.034
  YS02001791           JUNCTION      0.00  1289.16     0  02:25           0        3.08      -0.027
  YS02001793           JUNCTION      0.00  1231.27     0  02:23           0        3.08       0.003
  YS02001882           JUNCTION      0.00    56.76     0  02:20           0      0.0125       4.852
  YS02001884           JUNCTION      0.00    76.34     0  02:20           0       0.048       5.373
  YS02001887           JUNCTION    622.58   626.21     0  02:25       0.776       0.809       0.550
  YS02001890           JUNCTION      0.00   626.32     0  02:25           0       0.769       0.664
  YS02001895           JUNCTION      0.00   515.09     0  02:26           0       0.746       0.174
  YS02001898           JUNCTION      0.00   515.52     0  02:26           0       0.745       0.048
  YS02001901           JUNCTION      0.00   515.50     0  02:27           0       0.747       0.430
  YS02001904           JUNCTION      0.00   515.72     0  02:26           0       0.751       0.375
  YS02001907           JUNCTION      0.00  1557.86     0  02:26           0        2.46       0.722
  YS02001910           JUNCTION      0.00  1042.76     0  02:26           0        1.71       0.415
  YS02001915           JUNCTION    690.41  1042.43     0  02:26        1.07        1.75       0.094
  YS02001918           JUNCTION      0.00   429.37     0  02:23           0       0.712       0.044
  YS02001920           JUNCTION      2.87   428.73     0  02:23      0.0827       0.695       0.127
  YS02001923           JUNCTION      0.04   395.01     0  02:22     0.00109       0.597      -0.122
  YS02001926           JUNCTION      0.05   546.29     0  02:22      0.0015       0.576      -0.121
  YS02001929           JUNCTION    332.67   353.61     0  02:22       0.563       0.564      -0.030
  YS02006553           JUNCTION      0.00   798.78     0  02:35           0        1.96       0.607
  YS02006556           JUNCTION      0.00   799.30     0  02:35           0        1.97       0.412
  YS02006558           JUNCTION    818.29  1175.16     0  02:22        1.13        3.08       0.115
  YS02006561           JUNCTION      0.00  1175.97     0  02:22           0        3.05       0.000
  YS02163301           JUNCTION      0.00   932.79     0  02:21           0        2.91       0.056
  YS02163601           JUNCTION      0.11  1403.07     0  02:21     0.00317        3.99       0.123
  YS02164001           JUNCTION      0.00  1402.59     0  02:21           0        3.99       0.062
  YSB1154              JUNCTION    327.44   327.44     0  02:25       0.465       0.466       0.310
  YSB1171              JUNCTION      0.00   621.71     0  02:25           0       0.827       0.754
  YSB1174              JUNCTION    292.65   292.65     0  02:25       0.353       0.354       0.355
  YSB6556              JUNCTION      0.00   328.11     0  02:25           0       0.467       0.256
  CC-1                 OUTFALL       0.00   683.00     0  02:25           0        2.26       0.000
  CC-2                 OUTFALL       0.00   683.00     0  00:20           0           6       0.000
  JK-1                 OUTFALL       0.00  1000.00     0  00:05           0        2.46       0.000
  JK-2                 OUTFALL       0.00  1000.00     0  02:25           0       0.941       0.000
  WSC                  OUTFALL       0.00  1485.83     0  02:29           0          14       0.000
  CC-storage           STORAGE       0.00  3485.41     0  02:25           0        10.4      -4.366
  JK-storage           STORAGE       0.00  1265.73     0  02:23           0        3.23     -22.089
  XR-storage           STORAGE     200.00   200.00     0  00:00        5.76        6.36       0.001
  
  
  **********************
  Node Surcharge Summary
  **********************
  
  Surcharging occurs when water rises above the top of the highest conduit.
  ---------------------------------------------------------------------
                                               Max. Height   Min. Depth
                                   Hours       Above Crown    Below Rim
  Node                 Type      Surcharged         Meters       Meters
  ---------------------------------------------------------------------
  HS02004478           JUNCTION        0.29          0.652        0.288
  HS02004479           JUNCTION        0.40          0.894        0.156
  HS02004480           JUNCTION        0.43          0.964        0.136
  HS02004770           JUNCTION        0.35          0.720        0.000
  HS02004777           JUNCTION        0.36          0.780        0.000
  HS02004785           JUNCTION        0.31          0.790        0.000
  HS02004788           JUNCTION        0.30          0.720        0.000
  HS02004792           JUNCTION        0.40          0.900        0.000
  HS02004799           JUNCTION        0.51          1.060        0.000
  HS02004802           JUNCTION        0.44          1.083        0.127
  HS02004807           JUNCTION        0.42          1.220        0.000
  HS02004817           JUNCTION        0.89          1.736        0.004
  HS02004824           JUNCTION        0.31          1.310        0.000
  HS02004830           JUNCTION        0.28          1.328        0.002
  HS02004837           JUNCTION        0.25          1.271        0.069
  HS02004842           JUNCTION        0.36          1.520        0.000
  HS02004848           JUNCTION        0.22          1.370        0.000
  HS02004852           JUNCTION        0.24          1.420        0.000
  HS02004856           JUNCTION        0.22          1.300        0.000
  HS02004862           JUNCTION        0.25          1.300        0.000
  HS02004870           JUNCTION        0.27          1.400        0.000
  HS02004876           JUNCTION        0.31          1.401        0.159
  HS02004881           JUNCTION        0.29          1.411        0.039
  HS02004901           JUNCTION        0.36          0.720        0.000
  WS02004401           JUNCTION        1.32          0.908        0.752
  WS02004402           JUNCTION        1.35          0.818        0.922
  WS02004403           JUNCTION        1.35          0.752        1.278
  WS02004404           JUNCTION        1.45          0.793        1.987
  WS02004405           JUNCTION        1.43          0.688        2.112
  WS02004406           JUNCTION        1.41          0.645        1.805
  WS02004409           JUNCTION        0.72          0.370        1.990
  WS02004410           JUNCTION        0.66          0.282        2.258
  WS02004411           JUNCTION        0.59          0.191        2.339
  WS02004412           JUNCTION        0.53          0.096        2.214
  WS02004413           JUNCTION        1.03          0.139        2.061
  WS02006109           JUNCTION        1.84          1.820        0.000
  WS02006110           JUNCTION        1.58          1.501        0.349
  WS02006111           JUNCTION        0.97          1.055        0.815
  WS02006112           JUNCTION        1.66          1.680        0.000
  WS02006113           JUNCTION        1.00          1.099        0.831
  WS02006115           JUNCTION        1.18          1.111        1.139
  WS02006116           JUNCTION        1.19          0.993        1.297
  WS02006228           JUNCTION        1.83          2.200        0.000
  WS02006229           JUNCTION        0.62          1.046        0.024
  WS02006230           JUNCTION        1.46          1.570        0.000
  WS02006231           JUNCTION        1.51          1.494        0.036
  WS02006232           JUNCTION        1.72          1.480        0.000
  WS02006234           JUNCTION        1.57          1.240        0.000
  WS02006235           JUNCTION        1.62          1.284        0.006
  WS02006238           JUNCTION        1.64          1.290        0.140
  WS02006239           JUNCTION        1.58          1.285        0.005
  WS02006240           JUNCTION        1.54          1.390        0.000
  WS02006242           JUNCTION        1.58          0.820        0.000
  WS02006243           JUNCTION        1.48          0.770        0.000
  WS02006245           JUNCTION        1.44          0.575        0.275
  WS02006247           JUNCTION        1.44          0.535        0.225
  WS02006248           JUNCTION        1.38          0.380        0.000
  WS02006249           JUNCTION        1.40          0.390        0.000
  WS02006251           JUNCTION        1.14          1.180        0.000
  WS02006252           JUNCTION        1.40          1.100        0.000
  WS02006253           JUNCTION        1.15          2.480        0.000
  WS02006256           JUNCTION        5.15          2.050        0.000
  WS02006280           JUNCTION        0.52          0.697        0.083
  WS02006284           JUNCTION        0.46          0.662        0.138
  WS02006287           JUNCTION        0.38          0.731        0.159
  YS02001580           JUNCTION        0.36          0.450        0.000
  YS02001583           JUNCTION        0.37          0.500        0.000
  YS02001586           JUNCTION        0.46          0.510        0.000
  YS02001590           JUNCTION        0.52          0.731        0.019
  YS02001593           JUNCTION        0.53          0.688        0.152
  YS02001596           JUNCTION        0.62          0.939        0.131
  YS02001600           JUNCTION        0.74          1.187        0.003
  YS02001601           JUNCTION        1.08          1.440        0.000
  YS02001602           JUNCTION        0.97          1.270        0.000
  YS02001605           JUNCTION        0.92          1.180        0.000
  YS02001607           JUNCTION        0.48          0.649        0.031
  YS02001610           JUNCTION        0.50          0.680        0.000
  YS02001613           JUNCTION        0.47          0.689        0.011
  YS02001616           JUNCTION        0.43          0.610        0.000
  YS02001619           JUNCTION        0.42          0.609        0.001
  YS02001622           JUNCTION        0.42          0.579        0.041
  YS02001625           JUNCTION        0.58          0.780        0.000
  YS02001629           JUNCTION        0.36          0.470        0.000
  YS02001633           JUNCTION        0.59          0.993        0.067
  YS02001641           JUNCTION        0.50          0.950        0.150
  YS02001644           JUNCTION        0.46          0.920        0.000
  YS02001647           JUNCTION        0.26          0.763        0.137
  YS02001649           JUNCTION        0.31          0.932        0.118
  YS02001652           JUNCTION        0.18          0.774        0.356
  YS02001655           JUNCTION        0.12          0.811        0.389
  YS02001658           JUNCTION        0.05          0.756        0.544
  YS02001661           JUNCTION        0.01          0.007        1.383
  YS02001748           JUNCTION        0.01          0.594        0.596
  YS02001751           JUNCTION        0.07          0.662        0.538
  YS02001754           JUNCTION        0.12          0.661        0.489
  YS02001757           JUNCTION        0.32          0.957        0.253
  YS02001759           JUNCTION        0.25          1.210        0.000
  YS02001762           JUNCTION        0.23          1.150        0.000
  YS02001765           JUNCTION        0.19          1.100        0.000
  YS02001767           JUNCTION        0.18          0.926        0.104
  YS02001770           JUNCTION        0.17          0.899        0.021
  YS02001774           JUNCTION        0.22          0.986        0.064
  YS02001779           JUNCTION        0.14          0.680        0.000
  YS02001783           JUNCTION        0.36          0.574        1.026
  YS02001784           JUNCTION        0.34          0.396        1.094
  YS02001786           JUNCTION        0.25          0.145        1.285
  YS02001882           JUNCTION        0.32          0.741        0.089
  YS02001884           JUNCTION        0.32          0.761        0.109
  YS02001887           JUNCTION        0.35          0.810        0.140
  YS02001890           JUNCTION        0.36          0.760        0.000
  YS02001895           JUNCTION        0.30          0.571        0.179
  YS02001898           JUNCTION        0.29          0.533        0.207
  YS02001901           JUNCTION        0.34          0.679        0.191
  YS02001904           JUNCTION        0.33          0.642        0.208
  YS02001907           JUNCTION        0.55          0.950        0.000
  YS02001910           JUNCTION        0.38          0.986        0.114
  YS02001915           JUNCTION        0.31          0.949        0.051
  YS02001918           JUNCTION        0.24          0.810        0.000
  YS02001920           JUNCTION        0.25          1.140        0.000
  YS02001923           JUNCTION        0.01          0.820        0.000
  YS02001926           JUNCTION        0.01          0.900        0.000
  YS02001929           JUNCTION        0.01          0.780        0.000
  YS02006553           JUNCTION        0.56          0.991        0.199
  YS02006556           JUNCTION        0.46          0.959        0.391
  YS02006558           JUNCTION        0.45          0.948        0.452
  YS02006561           JUNCTION        0.21          0.277        0.873
  YS02163301           JUNCTION        0.57          0.916        0.114
  YS02163601           JUNCTION        0.63          1.024        0.056
  YS02164001           JUNCTION        0.51          0.945        0.155
  YSB1154              JUNCTION        0.59          1.246        0.154
  YSB1171              JUNCTION        0.60          1.100        0.000
  YSB1174              JUNCTION        0.54          1.117        0.133
  YSB6556              JUNCTION        0.49          1.093        0.007
  
  
  *********************
  Node Flooding Summary
  *********************
  
  Flooding refers to all water that overflows a node, whether it ponds or not.
  --------------------------------------------------------------------------
                                                             Total   Maximum
                                 Maximum   Time of Max       Flood    Ponded
                        Hours       Rate    Occurrence      Volume     Depth
  Node                 Flooded       LPS   days hr:min    10^6 ltr    Meters
  --------------------------------------------------------------------------
  HS02004770              0.22    673.65      0  02:25       0.283     0.000
  HS02004777              0.01     34.23      0  02:19       0.000     0.000
  HS02004785              0.01    292.37      0  02:19       0.000     0.000
  HS02004788              0.01    300.50      0  02:19       0.002     0.000
  HS02004792              0.21   1070.54      0  02:25       0.456     0.000
  HS02004799              0.09    139.20      0  02:25       0.024     0.000
  HS02004807              0.01     17.71      0  02:22       0.000     0.000
  HS02004824              0.01     11.22      0  02:22       0.000     0.000
  HS02004842              0.01     96.62      0  02:22       0.001     0.000
  HS02004848              0.01     63.75      0  02:22       0.000     0.000
  HS02004852              0.01    129.67      0  02:22       0.000     0.000
  HS02004856              0.01    380.86      0  02:22       0.002     0.000
  HS02004862              0.01    371.78      0  02:22       0.001     0.000
  HS02004870              0.01    381.79      0  02:22       0.001     0.000
  HS02004901              0.26    530.53      0  02:25       0.353     0.000
  WS02006109              0.25    237.61      0  02:25       0.123     0.000
  WS02006112              0.01   1153.65      0  00:00       0.035     0.000
  WS02006230              0.46    562.70      0  02:25       0.575     0.000
  WS02006232              0.12      0.72      0  02:15       0.000     0.000
  WS02006234              0.51    128.27      0  02:19       0.131     0.000
  WS02006240              0.01      0.13      0  02:40       0.000     0.000
  WS02006242              0.57    137.53      0  02:35       0.241     0.000
  WS02006243              0.01      0.17      0  02:40       0.000     0.000
  WS02006248              0.88    339.27      0  02:40       0.820     0.000
  WS02006249              1.13   1278.17      0  02:22       2.460     0.000
  WS02006251              0.01     54.15      0  02:22       0.000     0.000
  WS02006252              0.13    310.45      0  02:22       0.059     0.000
  WS02006253              0.01     92.30      0  02:22       0.000     0.000
  WS02006256              0.39    287.16      0  02:15       0.203     0.000
  YS02001580              0.01    101.55      0  02:19       0.000     0.000
  YS02001583              0.01     75.71      0  02:19       0.000     0.000
  YS02001586              0.27    193.65      0  02:26       0.098     0.000
  YS02001601              0.40    866.95      0  02:26       0.685     0.000
  YS02001602              0.28     61.99      0  02:34       0.055     0.000
  YS02001605              0.01      4.90      0  02:18       0.000     0.000
  YS02001610              0.24    396.12      0  02:27       0.212     0.000
  YS02001616              0.01     17.92      0  02:18       0.000     0.000
  YS02001625              0.19    978.67      0  02:27       0.338     0.000
  YS02001629              0.06    149.63      0  02:18       0.015     0.000
  YS02001644              0.04    335.41      0  02:25       0.031     0.000
  YS02001759              0.01     11.16      0  02:23       0.000     0.000
  YS02001762              0.01     22.97      0  02:23       0.000     0.000
  YS02001765              0.01     26.04      0  02:23       0.000     0.000
  YS02001779              0.02    289.01      0  02:23       0.003     0.000
  YS02001890              0.08    115.17      0  02:25       0.017     0.000
  YS02001907              0.19   1167.42      0  02:26       0.484     0.000
  YS02001918              0.01    135.24      0  02:22       0.002     0.000
  YS02001920              0.01     27.28      0  02:22       0.000     0.000
  YS02001923              0.01    167.43      0  02:22       0.000     0.000
  YS02001926              0.01    286.47      0  02:22       0.002     0.000
  YS02001929              0.01    212.48      0  02:22       0.001     0.000
  YSB1171                 0.14    607.38      0  02:25       0.185     0.000
  
  
  **********************
  Storage Volume Summary
  **********************
  
  ------------------------------------------------------------------------------------------------
                         Average    Avg   Evap  Exfil     Maximum    Max    Time of Max    Maximum
                          Volume   Pcnt   Pcnt   Pcnt      Volume   Pcnt     Occurrence    Outflow
  Storage Unit           1000 m   Full   Loss   Loss     1000 m   Full    days hr:min        LPS
  ------------------------------------------------------------------------------------------------
  CC-storage               1.842   28.7    0.0    0.0       4.835   75.4       0  03:10    1566.00
  JK-storage               0.005    1.9    0.0    0.0       0.151   51.7       0  00:05    2300.00
  XR-storage               0.946   65.7    0.0    0.0       1.111   77.1       0  08:00     190.00
  
  
  ***********************
  Outfall Loading Summary
  ***********************
  
  -----------------------------------------------------------
                         Flow       Avg       Max       Total
                         Freq      Flow      Flow      Volume
  Outfall Node           Pcnt       LPS       LPS    10^6 ltr
  -----------------------------------------------------------
  CC-1                  35.23    377.20    683.00       2.264
  CC-2                  58.49    466.19    683.00       5.997
  JK-1                  73.53    148.00   1000.00       2.462
  JK-2                  22.27    172.00   1000.00       0.941
  WSC                   99.99    590.16   1485.83      13.967
  -----------------------------------------------------------
  System                57.90   1753.54   4141.25      25.631
  
  
  ********************
  Link Flow Summary
  ********************
  
  -----------------------------------------------------------------------------
                                 Maximum  Time of Max   Maximum    Max/    Max/
                                  |Flow|   Occurrence   |Veloc|    Full    Full
  Link                 Type          LPS  days hr:min     m/sec    Flow   Depth
  -----------------------------------------------------------------------------
  1                    CONDUIT   1485.83     0  02:29      3.69    0.52    0.51
  HS02004478WS02006287 CONDUIT   2281.05     0  02:25      2.61    0.64    1.00
  HS02004479HS02004480 CONDUIT    456.66     0  02:22      0.65    0.44    1.00
  HS02004480HS02004478 CONDUIT   2098.72     0  02:21      3.00    8.84    1.00
  HS02004770HS02004777 CONDUIT    750.29     0  02:19      1.07    1.37    1.00
  HS02004777HS02004785 CONDUIT    756.08     0  02:19      1.12    0.93    1.00
  HS02004785HS02004788 CONDUIT    649.44     0  02:19      1.36    4.90    1.00
  HS02004788HS02004792 CONDUIT    814.82     0  02:35      1.45    0.54    1.00
  HS02004792HS02004799 CONDUIT   1575.16     0  02:20      2.25    0.96    1.00
  HS02004799HS02004480 CONDUIT   1741.42     0  02:20      2.49    2.20    1.00
  HS02004802HS02004478 CONDUIT    961.34     0  02:25      1.37    0.85    1.00
  HS02004807HS02004802 CONDUIT    960.63     0  02:25      1.37    1.83    1.00
  HS02004817HS02004807 CONDUIT    606.79     0  02:25      0.87    0.36    1.00
  HS02004817HS02004824 CONDUIT    605.21     0  02:25      0.86    0.27    1.00
  HS02004824HS02004830 CONDUIT    639.08     0  02:20      0.92    0.84    1.00
  HS02004830HS02004837 CONDUIT    653.52     0  02:20      1.02    0.65    1.00
  HS02004837HS02004842 CONDUIT    844.35     0  02:20      1.21    0.50    1.00
  HS02004842HS02004848 CONDUIT    843.26     0  02:20      1.34    0.49    1.00
  HS02004848HS02004852 CONDUIT   1080.65     0  02:22      1.62    1.22    1.00
  HS02004852HS02004856 CONDUIT   1079.59     0  02:22      1.54    1.23    1.00
  HS02004856HS02004862 CONDUIT   1089.06     0  02:21      1.72    1.09    1.00
  HS02004862HS02004870 CONDUIT   1207.43     0  02:22      1.93    1.30    1.00
  HS02004870HS02004876 CONDUIT   1191.52     0  02:22      1.79    0.79    1.00
  HS02004876HS02004881 CONDUIT   1337.92     0  02:22      2.37   14.23    1.00
  HS02004881HS02006253 CONDUIT   1423.61     0  02:22      2.03    0.28    1.00
  HS02004901HS02004770 CONDUIT    265.37     0  02:32      0.38    1.00    1.00
  WS02001211WS02001212 CONDUIT    213.93     0  02:54      0.54    0.16    0.69
  WS02001212WS02001213 CONDUIT    220.26     0  02:54      1.04    0.34    0.55
  WS02001213WS02003059 CONDUIT    226.58     0  02:53      0.47    0.37    0.89
  WS02003059WS02003060 CONDUIT    235.12     0  02:53      0.66    0.15    0.81
  WS02003060WS02003069 CONDUIT   1483.06     0  02:27      2.08    0.58    0.60
  WS02003066WSF200     CONDUIT   1283.71     0  02:26      3.25    0.22    0.38
  WS02003067WS02003066 CONDUIT   1283.58     0  02:25      1.98    0.41    0.56
  WS02003069WS02003072 CONDUIT   1483.24     0  02:27      1.88    0.71    0.66
  WS02003072WS02003073 CONDUIT   1483.52     0  02:28      2.04    3.20    0.61
  WS02004138WS02004139 CONDUIT    190.00     0  00:31      2.17    0.04    0.41
  WS02004139WS02001211 CONDUIT    198.58     0  02:53      0.55    0.25    0.60
  WS02004401WS02004402 CONDUIT   1284.38     0  02:25      2.07    1.54    1.00
  WS02004402WS02004403 CONDUIT   1285.11     0  02:25      1.84    1.85    1.00
  WS02004403WS02004404 CONDUIT   1286.38     0  02:25      1.68    0.93    1.00
  WS02004404WS02004405 CONDUIT   1286.66     0  02:25      1.86   12.61    1.00
  WS02004405WS02004406 CONDUIT   1286.93     0  02:25      1.80    2.54    1.00
  WS02004406WS02004407 CONDUIT   1286.93     0  02:25      1.81    0.58    0.95
  WS02004407WS02004409 CONDUIT   1282.83     0  02:25      1.74    0.45    0.95
  WS02004409WS02004410 CONDUIT   1282.86     0  02:25      1.63    1.66    1.00
  WS02004410WS02004411 CONDUIT   1283.08     0  02:25      1.63    1.75    1.00
  WS02004411WS02004412 CONDUIT   1282.69     0  02:25      1.63    1.82    1.00
  WS02004412WS02004413 CONDUIT   1282.63     0  02:25      1.63    0.86    1.00
  WS02004413WS02003067 CONDUIT   1282.72     0  02:25      1.99    0.55    0.76
  WS02006109WS02006110 CONDUIT   1306.78     0  00:00      3.15    2.51    1.00
  WS02006110WS02006113 CONDUIT   1122.12     0  02:34      2.23    1.02    1.00
  WS02006111WS02006112 CONDUIT   2307.30     0  00:00      9.18    1.10    1.00
  WS02006112WS02006115 CONDUIT   2152.75     0  00:00      2.85    1.27    1.00
  WS02006113WS02006111 CONDUIT   1176.04     0  00:00      2.67    1.41    1.00
  WS02006115WS02006116 CONDUIT   1283.89     0  02:25      1.81    1.65    1.00
  WS02006116WS02004401 CONDUIT   1284.11     0  02:25      2.21    1.77    1.00
  WS02006228WS02006109 CONDUIT   1276.97     0  02:25      2.54    5.58    1.00
  WS02006229WS02006228 CONDUIT   1277.01     0  02:25      2.54    4.23    1.00
  WS02006230WS02006229 CONDUIT   1005.37     0  02:25      2.61   22.37    1.00
  WS02006231WS02006230 CONDUIT    453.30     0  02:24      1.34    6.88    1.00
  WS02006232WS02006231 CONDUIT    453.46     0  02:24      1.18    0.95    1.00
  WS02006234WS02006232 CONDUIT    453.11     0  02:26      1.18    0.92    1.00
  WS02006235WS02006234 CONDUIT    413.30     0  02:20      1.07    4.36    1.00
  WS02006238WS02006235 CONDUIT    415.89     0  02:35      1.23    0.93    1.00
  WS02006239WS02006238 CONDUIT    415.26     0  02:35      1.08    1.33    1.00
  WS02006240WS02006239 CONDUIT    414.98     0  02:35      1.09    1.31    1.00
  WS02006242WS02006240 CONDUIT    415.34     0  02:35      1.08    1.65    1.00
  WS02006243WS02006242 CONDUIT    373.83     0  04:20      1.14    0.80    1.00
  WS02006245WS02006243 CONDUIT    381.37     0  04:19      1.21    1.13    1.00
  WS02006247WS02006245 CONDUIT    391.16     0  04:17      1.19    3.10    1.00
  WS02006248WS02006247 CONDUIT    393.84     0  04:17      1.22    0.86    1.00
  WS02006249WS02006248 CONDUIT    402.11     0  04:17      1.27    2.20    1.00
  WS02006251WS02006249 CONDUIT   1339.14     0  02:22      3.48    3.86    1.00
  WS02006252WS02006251 CONDUIT   1298.45     0  00:05     20.66    4.77    1.00
  WS02006253WS02006251 CONDUIT   1448.15     0  02:22      3.76    4.34    1.00
  WS02006256WS02006235 CONDUIT    174.78     0  01:57      2.47    1.85    1.00
  WS02006280WS02006229 CONDUIT   2280.45     0  02:25      3.77    0.49    1.00
  WS02006284WS02006280 CONDUIT   2279.70     0  02:25      3.01    0.95    1.00
  WS02006287WS02006284 CONDUIT   2280.09     0  02:25      2.90    1.06    1.00
  WSF200WS02003060     CONDUIT   1284.04     0  02:26      2.29    0.28    0.50
  YS02001580YS02001583 CONDUIT    130.21     0  02:19      0.65    0.50    1.00
  YS02001583YS02001586 CONDUIT    157.33     0  02:18      0.66    0.24    1.00
  YS02001586YS02001590 CONDUIT    317.97     0  02:35      1.25    0.56    1.00
  YS02001590YS02001593 CONDUIT    318.17     0  02:35      1.13    2.00    1.00
  YS02001593YS02001596 CONDUIT    318.04     0  02:35      1.74    0.50    1.00
  YS02001596YS02001600 CONDUIT    318.06     0  02:35      1.18    0.62    1.00
  YS02001600YS02001601 CONDUIT    317.88     0  02:35      1.12    0.55    1.00
  YS02001601YS02001602 CONDUIT    513.69     0  02:18      1.82    1.86    1.00
  YS02001602YS02001605 CONDUIT    513.00     0  02:18      1.81   10.86    1.00
  YS02001605YS02001607 CONDUIT    512.95     0  02:18      1.81    2.81    1.00
  YS02001607YS02001610 CONDUIT    515.00     0  02:18      0.66    0.49    1.00
  YS02001610YS02001613 CONDUIT    516.52     0  02:18      0.66    0.60    1.00
  YS02001613YS02001616 CONDUIT    517.54     0  02:18      0.66    0.44    1.00
  YS02001616YS02001619 CONDUIT    505.69     0  02:18      0.67    0.88    1.00
  YS02001619YS02001622 CONDUIT    932.77     0  02:21      1.19    1.37    1.00
  YS02001622YS02001625 CONDUIT    935.99     0  02:18      1.19    0.50    1.00
  YS02001625YS02001629 CONDUIT    937.13     0  02:18      1.20    0.45    1.00
  YS02001629YS02163301 CONDUIT    932.79     0  02:21      1.19    1.15    1.00
  YS02001633YS02163601 CONDUIT   1402.96     0  02:21      1.79    1.47    1.00
  YS02001641YS02001644 CONDUIT   1401.26     0  02:21      1.78    4.53    1.00
  YS02001644YS02001647 CONDUIT   1830.39     0  02:21      2.34    1.08    1.00
  YS02001647YS02001649 CONDUIT   1846.46     0  02:22      2.35    0.97    1.00
  YS02001649YS02001757 CONDUIT   2135.40     0  02:22      2.73    1.30    1.00
  YS02001652YS02001649 CONDUIT    738.32     0  02:25      0.94    0.37    1.00
  YS02001655YS02001652 CONDUIT    735.68     0  02:25      1.24    0.36    1.00
  YS02001658YS02001655 CONDUIT    733.93     0  02:25      1.90    0.31    1.00
  YS02001661YS02001658 CONDUIT    731.78     0  02:25      2.37    0.29    1.00
  YS02001664YS02001661 CONDUIT    812.79     0  02:25      2.39    0.25    0.73
  YS02001745YS02001748 CONDUIT    616.66     0  02:24      2.24    0.24    0.86
  YS02001748YS02001751 CONDUIT    474.34     0  02:25      1.74    0.24    1.00
  YS02001751YS02001754 CONDUIT    475.20     0  02:25      1.36    0.23    1.00
  YS02001754YS02001757 CONDUIT    474.61     0  02:25      0.60    0.19    1.00
  YS02001757CaochengTiaoxuchi CONDUIT   3485.41     0  02:25      6.06    1.51    1.00
  YS02001759YS02001757 CONDUIT   1339.66     0  02:24      1.71    0.95    1.00
  YS02001762YS02001759 CONDUIT    785.76     0  02:26      1.00    0.91    1.00
  YS02001765YS02001762 CONDUIT    784.89     0  02:26      1.00    0.74    1.00
  YS02001767YS02001765 CONDUIT    784.94     0  02:26      1.00    0.99    1.00
  YS02001770YS02001767 CONDUIT    784.12     0  02:26      1.00    3.11    1.00
  YS02001774YS02001770 CONDUIT    340.16     0  02:23      0.43    0.22    1.00
  YS02001779YS02001774 CONDUIT    354.17     0  02:23      0.45    0.18    1.00
  YS02001783YS02001784 CONDUIT   1158.75     0  02:24      2.31    1.60    1.00
  YS02001784YS02001785 CONDUIT   1159.35     0  02:24      2.31    2.70    1.00
  YS02001786YS02001788 CONDUIT   1159.71     0  02:24      2.47    2.23    0.89
  YS02001788YS02001790 CONDUIT   1167.60     0  02:25      2.71    0.86    0.84
  YS02001790YS02001791 CONDUIT   1289.16     0  02:25      3.42    1.40    0.71
  YS02001791YS02001793 CONDUIT   1231.27     0  02:23      6.74    0.53    0.42
  YS02001793JiankangQianchi CONDUIT   1265.73     0  02:23     22.60    0.10    0.61
  YS02001882YS02001884 CONDUIT     56.76     0  02:20      0.08    0.07    1.00
  YS02001884YS02001887 CONDUIT     76.34     0  02:20      0.10    0.10    1.00
  YS02001887YS02001890 CONDUIT    626.32     0  02:25      0.80    1.07    1.00
  YS02001890YS02001895 CONDUIT    515.09     0  02:26      0.66    0.24    1.00
  YS02001895YS02001898 CONDUIT    515.52     0  02:26      0.66    0.89    1.00
  YS02001898YS02001901 CONDUIT    515.50     0  02:27      0.66    0.33    1.00
  YS02001901YS02001904 CONDUIT    515.72     0  02:26      0.66    0.80    1.00
  YS02001904YS02001907 CONDUIT    515.32     0  02:26      0.66    0.18    1.00
  YS02001907YS02006553 CONDUIT    798.78     0  02:35      0.89    0.94    1.00
  YS02001910YS02001907 CONDUIT   1042.77     0  02:26      1.33    0.59    1.00
  YS02001915YS02001910 CONDUIT   1042.76     0  02:26      1.33    0.52    1.00
  YS02001918YS02001915 CONDUIT    430.34     0  02:23      0.55    0.24    1.00
  YS02001920YS02001918 CONDUIT    429.37     0  02:23      0.66    0.42    1.00
  YS02001923YS02001920 CONDUIT    425.86     0  02:23      0.69    0.19    1.00
  YS02001926YS02001923 CONDUIT    422.56     0  02:22      0.96    0.60    1.00
  YS02001929YS02001926 CONDUIT    379.84     0  02:23      1.13    0.18    1.00
  YS02006553YS02006556 CONDUIT    799.30     0  02:35      1.02    0.68    1.00
  YS02006556YS02006558 CONDUIT    801.72     0  02:35      1.02    0.63    1.00
  YS02006558YS02006561 CONDUIT   1175.97     0  02:22      4.16    2.60    1.00
  YS02006561YS02001783 CONDUIT   1158.12     0  02:24      2.30    0.60    1.00
  YS02163301YS02001633 CONDUIT    932.49     0  02:21      1.19    0.88    1.00
  YS02163601YS02164001 CONDUIT   1402.59     0  02:21      1.79    1.24    1.00
  YS02164001YS02001641 CONDUIT   1401.21     0  02:21      1.78    1.91    1.00
  YSB1154YSB6556       CONDUIT    328.11     0  02:25      0.85    0.59    1.00
  YSB1171HS02004479    CONDUIT    458.64     0  02:22      0.91    0.31    1.00
  YSB1174YSB1171       CONDUIT    293.01     0  02:25      0.76    0.45    1.00
  YSB6556YSB1171       CONDUIT    328.81     0  02:25      0.85    0.34    1.00
  CC-R1                PUMP       683.00     0  02:25              1.00
  CC-R2                PUMP       683.00     0  00:20              1.00
  CC-S1                PUMP       200.00     0  00:05              1.00
  CC-S2                PUMP       200.00     0  01:45              1.00
  JK-R1                PUMP      1000.00     0  00:05              1.00
  JK-R2                PUMP      1000.00     0  02:25              1.00
  JK-S                 PUMP       300.00     0  01:45              1.00
  XR-1                 PUMP        95.00     0  00:10              1.00
  XR-2                 PUMP        95.00     0  00:29              1.00
  XR-3                 PUMP         0.00     0  00:00              0.00
  XR-4                 PUMP         0.00     0  00:00              0.00
  
  
  ***************************
  Flow Classification Summary
  ***************************
  
  -------------------------------------------------------------------------------------
                      Adjusted    ---------- Fraction of Time in Flow Class ---------- 
                       /Actual         Up    Down  Sub   Sup   Up    Down  Norm  Inlet 
  Conduit               Length    Dry  Dry   Dry   Crit  Crit  Crit  Crit  Ltd   Ctrl  
  -------------------------------------------------------------------------------------
  1                       1.00   0.00  0.00  0.00  0.00  1.00  0.00  0.00  0.45  0.00
  HS02004478WS02006287    1.00   0.17  0.00  0.00  0.66  0.17  0.00  0.00  0.62  0.00
  HS02004479HS02004480    1.00   0.04  0.00  0.00  0.96  0.00  0.00  0.00  0.12  0.00
  HS02004480HS02004478    1.00   0.13  0.00  0.00  0.59  0.00  0.00  0.28  0.00  0.00
  HS02004770HS02004777    1.00   0.00  0.13  0.00  0.87  0.00  0.00  0.00  0.03  0.00
  HS02004777HS02004785    1.00   0.00  0.00  0.00  1.00  0.00  0.00  0.00  0.14  0.00
  HS02004785HS02004788    1.00   0.00  0.00  0.00  1.00  0.00  0.00  0.00  0.00  0.00
  HS02004788HS02004792    1.00   0.00  0.00  0.00  0.99  0.01  0.00  0.00  0.93  0.00
  HS02004792HS02004799    1.00   0.00  0.00  0.00  0.99  0.01  0.00  0.00  0.90  0.00
  HS02004799HS02004480    1.00   0.00  0.03  0.00  0.83  0.00  0.13  0.00  0.00  0.00
  HS02004802HS02004478    1.00   0.13  0.01  0.00  0.86  0.00  0.00  0.00  0.03  0.00
  HS02004807HS02004802    1.00   0.13  0.00  0.00  0.85  0.00  0.00  0.02  0.00  0.00
  HS02004817HS02004807    1.00   0.00  0.13  0.00  0.87  0.00  0.00  0.00  0.01  0.00
  HS02004817HS02004824    1.00   0.00  0.00  0.00  1.00  0.00  0.00  0.00  0.86  0.00
  HS02004824HS02004830    1.00   0.00  0.00  0.00  1.00  0.00  0.00  0.00  0.01  0.00
  HS02004830HS02004837    1.00   0.00  0.00  0.00  1.00  0.00  0.00  0.00  0.91  0.00
  HS02004837HS02004842    1.00   0.00  0.00  0.00  0.99  0.01  0.00  0.00  0.11  0.00
  HS02004842HS02004848    1.00   0.00  0.13  0.00  0.87  0.00  0.00  0.00  0.58  0.00
  HS02004848HS02004852    1.00   0.13  0.00  0.00  0.87  0.00  0.00  0.00  0.69  0.00
  HS02004852HS02004856    1.00   0.13  0.01  0.00  0.86  0.00  0.00  0.00  0.71  0.00
  HS02004856HS02004862    1.00   0.00  0.19  0.00  0.81  0.00  0.00  0.00  0.75  0.00
  HS02004862HS02004870    1.00   0.00  0.00  0.00  1.00  0.00  0.00  0.00  0.05  0.00
  HS02004870HS02004876    1.00   0.00  0.00  0.00  1.00  0.00  0.00  0.00  0.89  0.00
  HS02004876HS02004881    1.00   0.01  0.00  0.00  0.86  0.13  0.00  0.00  0.00  0.00
  HS02004881HS02006253    1.00   0.02  0.03  0.00  0.40  0.00  0.00  0.55  0.36  0.00
  HS02004901HS02004770    1.00   0.13  0.00  0.00  0.87  0.00  0.00  0.00  0.00  0.00
  WS02001211WS02001212    1.00   0.00  0.02  0.00  0.98  0.00  0.00  0.00  0.00  0.00
  WS02001212WS02001213    1.00   0.02  0.00  0.00  0.39  0.00  0.58  0.00  0.00  0.00
  WS02001213WS02003059    1.00   0.00  0.01  0.00  0.99  0.00  0.00  0.00  0.00  0.00
  WS02003059WS02003060    1.00   0.00  0.00  0.00  1.00  0.00  0.00  0.00  0.03  0.00
  WS02003060WS02003069    1.00   0.00  0.00  0.00  0.97  0.03  0.00  0.00  0.46  0.00
  WS02003066WSF200        1.00   0.06  0.00  0.00  0.00  0.94  0.00  0.00  0.72  0.00
  WS02003067WS02003066    1.00   0.05  0.01  0.00  0.94  0.00  0.00  0.00  0.00  0.00
  WS02003069WS02003072    1.00   0.00  0.00  0.00  0.99  0.01  0.00  0.00  0.54  0.00
  WS02003072WS02003073    1.00   0.00  0.00  0.00  0.00  0.00  0.00  1.00  0.00  0.00
  WS02004138WS02004139    1.00   0.02  0.00  0.00  0.97  0.01  0.00  0.00  0.98  0.00
  WS02004139WS02001211    1.00   0.00  0.01  0.00  0.99  0.00  0.00  0.00  0.00  0.00
  WS02004401WS02004402    1.00   0.00  0.00  0.00  1.00  0.00  0.00  0.00  0.00  0.00
  WS02004402WS02004403    1.00   0.00  0.00  0.00  1.00  0.00  0.00  0.00  0.00  0.00
  WS02004403WS02004404    1.00   0.00  0.00  0.00  1.00  0.00  0.00  0.00  0.00  0.00
  WS02004404WS02004405    1.00   0.00  0.00  0.00  1.00  0.00  0.00  0.00  0.00  0.00
  WS02004405WS02004406    1.00   0.00  0.00  0.00  1.00  0.00  0.00  0.00  0.00  0.00
  WS02004406WS02004407    1.00   0.00  0.01  0.00  0.99  0.00  0.00  0.00  0.01  0.00
  WS02004407WS02004409    1.00   0.01  0.00  0.00  0.98  0.01  0.00  0.00  0.90  0.00
  WS02004409WS02004410    1.00   0.01  0.00  0.00  0.99  0.00  0.00  0.00  0.00  0.00
  WS02004410WS02004411    1.00   0.01  0.00  0.00  0.99  0.00  0.00  0.00  0.01  0.00
  WS02004411WS02004412    1.00   0.01  0.00  0.00  0.99  0.00  0.00  0.00  0.00  0.00
  WS02004412WS02004413    1.00   0.01  0.00  0.00  0.99  0.00  0.00  0.00  0.02  0.00
  WS02004413WS02003067    1.00   0.01  0.04  0.00  0.00  0.00  0.95  0.00  0.00  0.00
  WS02006109WS02006110    1.00   0.00  0.00  0.00  1.00  0.00  0.00  0.00  0.00  0.00
  WS02006110WS02006113    1.00   0.00  0.00  0.00  1.00  0.00  0.00  0.00  0.00  0.00
  WS02006111WS02006112    1.00   0.00  0.00  0.00  1.00  0.00  0.00  0.00  0.82  0.00
  WS02006112WS02006115    1.00   0.00  0.00  0.00  1.00  0.00  0.00  0.00  0.00  0.00
  WS02006113WS02006111    1.00   0.00  0.00  0.00  0.15  0.85  0.00  0.00  0.09  0.00
  WS02006115WS02006116    1.00   0.00  0.00  0.00  1.00  0.00  0.00  0.00  0.00  0.00
  WS02006116WS02004401    1.00   0.00  0.00  0.00  1.00  0.00  0.00  0.00  0.00  0.00
  WS02006228WS02006109    1.00   0.00  0.00  0.00  1.00  0.00  0.00  0.00  0.00  0.00
  WS02006229WS02006228    1.00   0.00  0.00  0.00  1.00  0.00  0.00  0.00  0.00  0.00
  WS02006230WS02006229    1.00   0.00  0.00  0.00  1.00  0.00  0.00  0.00  0.00  0.00
  WS02006231WS02006230    1.00   0.00  0.00  0.00  0.31  0.00  0.69  0.00  0.00  0.00
  WS02006232WS02006231    1.00   0.00  0.00  0.00  0.99  0.00  0.00  0.00  0.01  0.00
  WS02006234WS02006232    1.00   0.00  0.01  0.00  0.99  0.00  0.00  0.00  0.24  0.00
  WS02006235WS02006234    1.00   0.02  0.00  0.00  0.65  0.00  0.33  0.00  0.00  0.00
  WS02006238WS02006235    1.00   0.02  0.00  0.00  0.98  0.00  0.00  0.00  0.00  0.00
  WS02006239WS02006238    1.00   0.02  0.00  0.00  0.98  0.00  0.00  0.00  0.30  0.00
  WS02006240WS02006239    1.00   0.02  0.00  0.00  0.56  0.00  0.00  0.42  0.01  0.00
  WS02006242WS02006240    1.00   0.01  0.00  0.00  0.98  0.00  0.00  0.00  0.00  0.00
  WS02006243WS02006242    1.00   0.01  0.00  0.00  0.98  0.00  0.00  0.01  0.51  0.00
  WS02006245WS02006243    1.00   0.01  0.00  0.00  0.89  0.00  0.00  0.10  0.01  0.00
  WS02006247WS02006245    1.00   0.01  0.00  0.00  0.98  0.00  0.00  0.01  0.00  0.00
  WS02006248WS02006247    1.00   0.01  0.00  0.00  0.99  0.00  0.00  0.00  0.48  0.00
  WS02006249WS02006248    1.00   0.00  0.01  0.00  0.47  0.00  0.52  0.00  0.00  0.00
  WS02006251WS02006249    1.00   0.00  0.00  0.00  1.00  0.00  0.00  0.00  0.51  0.00
  WS02006252WS02006251    1.00   0.01  0.19  0.00  0.16  0.00  0.64  0.00  0.00  0.00
  WS02006253WS02006251    1.00   0.01  0.00  0.00  0.97  0.00  0.01  0.00  0.00  0.00
  WS02006256WS02006235    1.00   0.02  0.00  0.00  0.98  0.00  0.00  0.00  0.00  0.00
  WS02006280WS02006229    1.00   0.14  0.00  0.00  0.12  0.03  0.00  0.71  0.01  0.00
  WS02006284WS02006280    1.00   0.14  0.00  0.00  0.07  0.01  0.00  0.79  0.00  0.00
  WS02006287WS02006284    1.00   0.10  0.07  0.00  0.55  0.28  0.00  0.00  0.67  0.00
  WSF200WS02003060        1.00   0.00  0.06  0.00  0.69  0.25  0.00  0.00  0.55  0.00
  YS02001580YS02001583    1.00   0.29  0.56  0.00  0.16  0.00  0.00  0.00  0.65  0.00
  YS02001583YS02001586    1.00   0.42  0.37  0.00  0.21  0.00  0.00  0.00  0.65  0.00
  YS02001586YS02001590    1.00   0.13  0.00  0.00  0.41  0.05  0.00  0.42  0.39  0.00
  YS02001590YS02001593    1.00   0.13  0.01  0.00  0.08  0.00  0.78  0.00  0.00  0.00
  YS02001593YS02001596    1.00   0.14  0.00  0.00  0.09  0.01  0.00  0.76  0.02  0.00
  YS02001596YS02001600    1.00   0.14  0.00  0.00  0.16  0.02  0.00  0.68  0.06  0.00
  YS02001600YS02001601    1.00   0.13  0.01  0.00  0.86  0.00  0.00  0.00  0.63  0.00
  YS02001601YS02001602    1.00   0.13  0.01  0.00  0.86  0.00  0.00  0.00  0.00  0.00
  YS02001602YS02001605    1.00   0.14  0.00  0.00  0.86  0.00  0.00  0.00  0.00  0.00
  YS02001605YS02001607    1.00   0.14  0.00  0.00  0.86  0.00  0.00  0.00  0.00  0.00
  YS02001607YS02001610    1.00   0.13  0.01  0.00  0.86  0.00  0.00  0.00  0.02  0.00
  YS02001610YS02001613    1.00   0.13  0.00  0.00  0.87  0.00  0.00  0.00  0.01  0.00
  YS02001613YS02001616    1.00   0.13  0.00  0.00  0.87  0.00  0.00  0.00  0.01  0.00
  YS02001616YS02001619    1.00   0.13  0.00  0.00  0.87  0.00  0.00  0.00  0.00  0.00
  YS02001619YS02001622    1.00   0.13  0.00  0.00  0.87  0.00  0.00  0.00  0.29  0.00
  YS02001622YS02001625    1.00   0.13  0.00  0.00  0.87  0.00  0.00  0.00  0.06  0.00
  YS02001625YS02001629    1.00   0.13  0.07  0.00  0.15  0.00  0.66  0.00  0.00  0.00
  YS02001629YS02163301    1.00   0.17  0.01  0.00  0.82  0.00  0.00  0.00  0.00  0.00
  YS02001633YS02163601    1.00   0.00  0.01  0.00  0.99  0.00  0.00  0.00  0.16  0.00
  YS02001641YS02001644    1.00   0.00  0.01  0.00  0.99  0.00  0.00  0.00  0.00  0.00
  YS02001644YS02001647    1.00   0.00  0.19  0.00  0.81  0.00  0.00  0.00  0.00  0.00
  YS02001647YS02001649    1.00   0.00  0.19  0.00  0.63  0.18  0.00  0.00  0.57  0.00
  YS02001649YS02001757    1.00   0.00  0.00  0.00  0.88  0.12  0.00  0.00  0.66  0.00
  YS02001652YS02001649    1.00   0.00  0.00  0.00  0.95  0.05  0.00  0.00  0.73  0.00
  YS02001655YS02001652    1.00   0.00  0.00  0.00  0.21  0.01  0.00  0.78  0.06  0.00
  YS02001658YS02001655    1.00   0.00  0.15  0.00  0.68  0.18  0.00  0.00  0.74  0.00
  YS02001661YS02001658    1.00   0.15  0.00  0.00  0.45  0.41  0.00  0.00  0.74  0.00
  YS02001664YS02001661    1.00   0.13  0.00  0.00  0.77  0.10  0.00  0.00  0.86  0.00
  YS02001745YS02001748    1.00   0.00  0.00  0.00  0.04  0.02  0.00  0.94  0.05  0.00
  YS02001748YS02001751    1.00   0.00  0.00  0.00  0.85  0.15  0.00  0.00  0.74  0.00
  YS02001751YS02001754    1.00   0.00  0.00  0.00  0.19  0.01  0.00  0.80  0.04  0.00
  YS02001754YS02001757    1.00   0.00  0.00  0.00  1.00  0.00  0.00  0.00  0.79  0.00
  YS02001757CaochengTiaoxuchi    1.00   0.00  0.00  0.00  0.46  0.54  0.00  0.00  0.25  0.00
  YS02001759YS02001757    1.00   0.00  0.00  0.00  1.00  0.00  0.00  0.00  0.66  0.00
  YS02001762YS02001759    1.00   0.00  0.00  0.00  1.00  0.00  0.00  0.00  0.06  0.00
  YS02001765YS02001762    1.00   0.00  0.00  0.00  1.00  0.00  0.00  0.00  0.69  0.00
  YS02001767YS02001765    1.00   0.00  0.00  0.00  1.00  0.00  0.00  0.00  0.00  0.00
  YS02001770YS02001767    1.00   0.00  0.00  0.00  1.00  0.00  0.00  0.00  0.00  0.00
  YS02001774YS02001770    1.00   0.00  0.14  0.00  0.69  0.00  0.17  0.00  0.04  0.00
  YS02001779YS02001774    1.00   0.00  0.00  0.00  1.00  0.00  0.00  0.00  0.74  0.00
  YS02001783YS02001784    1.00   0.00  0.20  0.00  0.80  0.00  0.00  0.00  0.56  0.00
  YS02001784YS02001785    1.00   0.00  0.00  0.00  1.00  0.00  0.00  0.00  0.19  0.00
  YS02001786YS02001788    1.00   0.00  0.00  0.00  0.80  0.20  0.00  0.00  0.00  0.00
  YS02001788YS02001790    1.00   0.00  0.00  0.00  0.22  0.78  0.00  0.00  0.83  0.00
  YS02001790YS02001791    1.00   0.00  0.00  0.00  0.01  0.99  0.00  0.00  0.14  0.00
  YS02001791YS02001793    1.00   0.00  0.00  0.00  0.00  1.00  0.00  0.00  0.00  0.00
  YS02001793JiankangQianchi    1.00   0.00  0.00  0.00  0.30  0.70  0.00  0.00  0.39  0.00
  YS02001882YS02001884    1.00   0.16  0.01  0.00  0.83  0.00  0.00  0.00  0.00  0.00
  YS02001884YS02001887    1.00   0.06  0.05  0.00  0.89  0.00  0.00  0.00  0.00  0.00
  YS02001887YS02001890    1.00   0.00  0.00  0.00  0.97  0.00  0.03  0.00  0.00  0.00
  YS02001890YS02001895    1.00   0.00  0.18  0.00  0.82  0.00  0.00  0.00  0.00  0.00
  YS02001895YS02001898    1.00   0.18  0.00  0.00  0.79  0.00  0.02  0.00  0.00  0.00
  YS02001898YS02001901    1.00   0.18  0.01  0.00  0.81  0.00  0.00  0.00  0.02  0.00
  YS02001901YS02001904    1.00   0.18  0.00  0.00  0.82  0.00  0.00  0.00  0.00  0.00
  YS02001904YS02001907    1.00   0.00  0.18  0.00  0.82  0.00  0.00  0.00  0.00  0.00
  YS02001907YS02006553    1.00   0.00  0.02  0.00  0.98  0.00  0.00  0.00  0.00  0.00
  YS02001910YS02001907    1.00   0.00  0.00  0.00  0.97  0.00  0.00  0.03  0.12  0.00
  YS02001915YS02001910    1.00   0.00  0.00  0.00  0.96  0.04  0.00  0.00  0.18  0.00
  YS02001918YS02001915    1.00   0.00  0.00  0.00  0.98  0.02  0.00  0.00  0.79  0.00
  YS02001920YS02001918    1.00   0.00  0.00  0.00  1.00  0.00  0.00  0.00  0.01  0.00
  YS02001923YS02001920    1.00   0.00  0.00  0.00  1.00  0.00  0.00  0.00  0.95  0.00
  YS02001926YS02001923    1.00   0.00  0.07  0.00  0.04  0.00  0.89  0.00  0.00  0.00
  YS02001929YS02001926    1.00   0.00  0.13  0.00  0.87  0.00  0.00  0.00  0.84  0.00
  YS02006553YS02006556    1.00   0.01  0.00  0.00  0.99  0.00  0.00  0.00  0.03  0.00
  YS02006556YS02006558    1.00   0.00  0.00  0.00  1.00  0.00  0.00  0.00  0.00  0.00
  YS02006558YS02006561    1.00   0.20  0.00  0.00  0.04  0.76  0.00  0.00  0.19  0.00
  YS02006561YS02001783    1.00   0.20  0.00  0.00  0.06  0.74  0.00  0.00  0.70  0.00
  YS02163301YS02001633    1.00   0.00  0.17  0.00  0.83  0.00  0.00  0.00  0.00  0.00
  YS02163601YS02164001    1.00   0.00  0.08  0.00  0.92  0.00  0.00  0.00  0.00  0.00
  YS02164001YS02001641    1.00   0.01  0.07  0.00  0.92  0.00  0.00  0.00  0.06  0.00
  YSB1154YSB6556          1.00   0.12  0.00  0.00  0.88  0.00  0.00  0.00  0.02  0.00
  YSB1171HS02004479       1.00   0.04  0.00  0.00  0.95  0.00  0.00  0.01  0.11  0.00
  YSB1174YSB1171          1.00   0.05  0.04  0.00  0.91  0.00  0.00  0.00  0.00  0.00
  YSB6556YSB1171          1.00   0.04  0.08  0.00  0.88  0.00  0.00  0.00  0.00  0.00
  
  
  *************************
  Conduit Surcharge Summary
  *************************
  
  ----------------------------------------------------------------------------
                                                           Hours        Hours 
                         --------- Hours Full --------   Above Full   Capacity
  Conduit                Both Ends  Upstream  Dnstream   Normal Flow   Limited
  ----------------------------------------------------------------------------
  HS02004478WS02006287        0.29      0.29      0.44      0.01         0.01
  HS02004479HS02004480        0.44      0.44      0.46      0.01         0.01
  HS02004480HS02004478        0.38      0.43      0.38      1.36         0.38
  HS02004770HS02004777        0.35      0.35      0.36      0.08         0.05
  HS02004777HS02004785        0.31      0.31      0.36      0.01         0.01
  HS02004785HS02004788        0.30      0.31      0.30      1.06         0.29
  HS02004788HS02004792        0.30      0.30      0.40      0.01         0.01
  HS02004792HS02004799        0.40      0.40      0.51      0.01         0.01
  HS02004799HS02004480        0.43      0.43      0.51      0.57         0.01
  HS02004802HS02004478        0.39      0.39      0.45      0.01         0.01
  HS02004807HS02004802        0.42      0.42      0.44      0.12         0.12
  HS02004817HS02004807        0.42      0.42      0.89      0.01         0.01
  HS02004817HS02004824        0.31      0.31      0.89      0.01         0.01
  HS02004824HS02004830        0.28      0.28      0.31      0.01         0.01
  HS02004830HS02004837        0.25      0.25      0.28      0.01         0.01
  HS02004837HS02004842        0.25      0.25      0.36      0.01         0.01
  HS02004842HS02004848        0.22      0.22      0.36      0.01         0.01
  HS02004848HS02004852        0.22      0.22      0.24      0.03         0.01
  HS02004852HS02004856        0.24      0.24      0.25      0.02         0.01
  HS02004856HS02004862        0.22      0.22      0.25      0.01         0.01
  HS02004862HS02004870        0.25      0.25      0.27      0.02         0.03
  HS02004870HS02004876        0.27      0.27      0.31      0.01         0.01
  HS02004876HS02004881        0.29      0.31      0.29      1.09         0.29
  HS02004881HS02006253        0.29      0.29      1.15      0.01         0.01
  HS02004901HS02004770        0.35      0.35      0.36      0.01         0.01
  WS02003072WS02003073        0.01      0.01      0.01      3.11         0.01
  WS02004401WS02004402        1.32      1.32      1.35      1.11         1.11
  WS02004402WS02004403        1.35      1.35      1.35      1.32         1.31
  WS02004403WS02004404        1.35      1.35      1.45      0.01         0.01
  WS02004404WS02004405        1.43      1.45      1.43      3.97         1.43
  WS02004405WS02004406        1.41      1.43      1.41      1.61         1.41
  WS02004406WS02004407        0.01      0.01      1.41      0.01         0.01
  WS02004407WS02004409        0.01      0.01      0.72      0.01         0.01
  WS02004409WS02004410        0.66      0.72      0.66      1.17         0.66
  WS02004410WS02004411        0.59      0.66      0.59      1.22         0.59
  WS02004411WS02004412        0.53      0.59      0.53      1.31         0.53
  WS02004412WS02004413        0.53      0.53      1.03      0.01         0.01
  WS02004413WS02003067        0.01      0.01      1.03      0.01         0.01
  WS02006109WS02006110        1.57      1.58      1.93      1.59         0.01
  WS02006110WS02006113        1.00      1.00      1.88      0.22         0.01
  WS02006111WS02006112        0.96      0.97      2.60      0.01         0.01
  WS02006112WS02006115        1.18      1.18      1.65      0.01         0.01
  WS02006113WS02006111        0.99      1.00      0.99      1.10         0.99
  WS02006115WS02006116        1.19      1.19      1.19      1.17         1.16
  WS02006116WS02004401        1.32      1.32      1.32      1.27         1.25
  WS02006228WS02006109        1.84      1.93      1.84      3.18         1.84
  WS02006229WS02006228        1.83      1.85      1.83      2.45         1.83
  WS02006230WS02006229        2.05      2.25      2.05      3.99         1.34
  WS02006231WS02006230        1.46      1.46      1.52      3.68         0.70
  WS02006232WS02006231        1.51      1.51      1.72      0.01         0.10
  WS02006234WS02006232        1.60      1.60      1.72      0.01         0.01
  WS02006235WS02006234        1.57      1.57      1.62      3.46         0.68
  WS02006238WS02006235        1.63      1.63      1.67      0.01         0.22
  WS02006239WS02006238        1.62      1.62      1.64      0.67         0.01
  WS02006240WS02006239        1.56      1.56      1.58      0.67         0.01
  WS02006242WS02006240        1.54      1.54      1.64      1.30         0.58
  WS02006243WS02006242        1.49      1.49      1.58      0.01         0.01
  WS02006245WS02006243        1.45      1.45      1.48      0.13         0.01
  WS02006247WS02006245        1.44      1.45      1.44      3.22         0.57
  WS02006248WS02006247        1.40      1.40      1.44      0.01         0.01
  WS02006249WS02006248        1.38      1.38      1.40      2.41         0.01
  WS02006251WS02006249        1.38      1.38      1.40      1.01         0.89
  WS02006252WS02006251        1.31      1.32      1.40      0.17         0.01
  WS02006253WS02006251        1.37      1.37      1.39      0.55         0.01
  WS02006256WS02006235        3.66      3.66      5.14      0.50         0.01
  WS02006280WS02006229        0.53      0.53      0.62      0.01         0.01
  WS02006284WS02006280        0.46      0.46      0.52      0.01         0.01
  WS02006287WS02006284        0.38      0.38      0.47      0.15         0.15
  YS02001580YS02001583        0.36      0.36      0.40      0.01         0.01
  YS02001583YS02001586        0.37      0.37      0.46      0.01         0.01
  YS02001586YS02001590        0.47      0.47      0.52      0.01         0.01
  YS02001590YS02001593        0.53      0.53      0.54      0.55         0.01
  YS02001593YS02001596        0.54      0.54      0.62      0.01         0.01
  YS02001596YS02001600        0.66      0.66      0.74      0.01         0.01
  YS02001600YS02001601        0.81      0.81      1.08      0.01         0.01
  YS02001601YS02001602        0.97      0.97      1.12      0.76         0.01
  YS02001602YS02001605        0.92      0.92      0.97      2.02         0.01
  YS02001605YS02001607        0.89      0.92      0.89      1.02         0.89
  YS02001607YS02001610        0.48      0.48      0.50      0.01         0.01
  YS02001610YS02001613        0.47      0.47      0.50      0.01         0.01
  YS02001613YS02001616        0.43      0.43      0.47      0.01         0.01
  YS02001616YS02001619        0.42      0.42      0.43      0.01         0.01
  YS02001619YS02001622        0.42      0.42      0.42      0.56         0.40
  YS02001622YS02001625        0.42      0.42      0.58      0.01         0.01
  YS02001625YS02001629        0.36      0.36      0.58      0.01         0.01
  YS02001629YS02163301        0.56      0.56      0.57      0.27         0.25
  YS02001633YS02163601        0.59      0.59      0.63      0.37         0.37
  YS02001641YS02001644        0.46      0.50      0.46      1.17         0.45
  YS02001644YS02001647        0.26      0.26      0.46      0.05         0.01
  YS02001647YS02001649        0.26      0.26      0.31      0.01         0.01
  YS02001649YS02001757        0.30      0.31      0.32      0.32         0.25
  YS02001652YS02001649        0.19      0.19      0.31      0.01         0.01
  YS02001655YS02001652        0.12      0.12      0.18      0.01         0.01
  YS02001658YS02001655        0.05      0.05      0.12      0.01         0.01
  YS02001661YS02001658        0.01      0.01      0.05      0.01         0.01
  YS02001664YS02001661        0.01      0.01      0.01      0.01         0.01
  YS02001745YS02001748        0.01      0.01      0.01      0.01         0.01
  YS02001748YS02001751        0.03      0.03      0.07      0.01         0.01
  YS02001751YS02001754        0.07      0.07      0.12      0.01         0.01
  YS02001754YS02001757        0.13      0.13      0.32      0.01         0.01
  YS02001757CaochengTiaoxuchi        0.12      0.32      1.41      0.29         0.05
  YS02001759YS02001757        0.25      0.25      0.32      0.01         0.01
  YS02001762YS02001759        0.23      0.23      0.25      0.01         0.02
  YS02001765YS02001762        0.19      0.19      0.23      0.01         0.01
  YS02001767YS02001765        0.18      0.18      0.19      0.01         0.03
  YS02001770YS02001767        0.18      0.18      0.18      0.39         0.18
  YS02001774YS02001770        0.17      0.17      0.22      0.01         0.01
  YS02001779YS02001774        0.14      0.14      0.22      0.01         0.01
  YS02001783YS02001784        0.34      0.36      0.34      0.49         0.34
  YS02001784YS02001785        0.25      0.34      0.25      0.67         0.25
  YS02001786YS02001788        0.01      0.25      0.01      0.58         0.01
  YS02001790YS02001791        0.01      0.01      0.01      0.33         0.01
  YS02001793JiankangQianchi        0.01      0.01      0.28      0.01         0.01
  YS02001882YS02001884        0.32      0.32      0.32      0.01         0.01
  YS02001884YS02001887        0.34      0.34      0.35      0.01         0.01
  YS02001887YS02001890        0.36      0.36      0.37      0.03         0.01
  YS02001890YS02001895        0.30      0.30      0.39      0.01         0.01
  YS02001895YS02001898        0.30      0.30      0.30      0.01         0.01
  YS02001898YS02001901        0.31      0.31      0.34      0.01         0.01
  YS02001901YS02001904        0.33      0.33      0.34      0.01         0.01
  YS02001904YS02001907        0.33      0.33      0.56      0.01         0.01
  YS02001907YS02006553        0.67      0.67      0.73      0.01         0.01
  YS02001910YS02001907        0.38      0.38      0.55      0.01         0.01
  YS02001915YS02001910        0.31      0.31      0.38      0.01         0.01
  YS02001918YS02001915        0.24      0.24      0.31      0.01         0.01
  YS02001920YS02001918        0.24      0.24      0.25      0.01         0.01
  YS02001923YS02001920        0.20      0.20      0.25      0.01         0.01
  YS02001926YS02001923        0.01      0.01      0.01      0.01         0.01
  YS02001929YS02001926        0.01      0.01      0.01      0.01         0.01
  YS02006553YS02006556        0.46      0.46      0.56      0.01         0.01
  YS02006556YS02006558        0.51      0.51      0.57      0.01         0.01
  YS02006558YS02006561        0.27      0.45      0.27      0.63         0.27
  YS02006561YS02001783        0.21      0.21      0.36      0.01         0.01
  YS02163301YS02001633        0.57      0.57      0.61      0.01         0.01
  YS02163601YS02164001        0.51      0.51      0.63      0.20         0.01
  YS02164001YS02001641        0.50      0.51      0.50      0.58         0.44
  YSB1154YSB6556              0.49      0.49      0.59      0.01         0.01
  YSB1171HS02004479           0.40      0.40      0.60      0.01         0.01
  YSB1174YSB1171              0.54      0.54      0.79      0.01         0.01
  YSB6556YSB1171              0.49      0.49      0.94      0.01         0.01
  
  
  ***************
  Pumping Summary
  ***************
  
  ---------------------------------------------------------------------------------------------------------
                                                  Min       Avg       Max     Total     Power    % Time Off
                        Percent   Number of      Flow      Flow      Flow    Volume     Usage    Pump Curve
  Pump                 Utilized   Start-Ups       LPS       LPS       LPS  10^6 ltr     Kw-hr    Low   High
  ---------------------------------------------------------------------------------------------------------
  CC-R1                   47.92          10      0.00    377.20    683.00     2.264     38.16    0.0   93.5
  CC-R2                   71.87           8      0.00    466.19    683.00     5.995    101.04    0.0   86.0
  CC-S1                   27.08          10      0.00    192.05    200.00     1.459      9.66    0.0   24.5
  CC-S2                   25.00           8      0.00    180.15    200.00     1.161      7.75    0.0   47.0
  JK-R1                   54.17           9      0.00    148.00   1000.00     2.469      7.77    0.0    0.0
  JK-R2                   14.58           8      0.00    172.00   1000.00     0.943      2.98    0.0    0.0
  JK-S                    43.75          10      0.00     62.05    300.00     0.698     15.04    0.0    0.0
  XR-1                    97.91           1      0.00     95.00     95.00     2.679      9.63    0.0    0.0
  XR-2                    93.95           1      0.00     95.00     95.00     2.570      8.79    0.0    0.0
  XR-3                     0.00           0      0.00      0.00      0.00     0.000      0.00    0.0    0.0
  XR-4                     0.00           0      0.00      0.00      0.00     0.000      0.00    0.0    0.0
  

  Analysis begun on:  Thu Jun 15 19:51:18 2023
  Analysis ended on:  Thu Jun 15 19:51:30 2023
  Total elapsed time: 00:00:12