
  OWA STORM WATER MANAGEMENT MODEL - VERSION v5.2.3 (OWA 2023-03-28)
  ------------------------------------------------------------

  WARNING 04: minimum elevation drop used for Conduit WS02004404WS02004405
  WARNING 03: negative offset ignored for Link YS02001904YS02001907
  
  ****************
  Analysis Options
  ****************
  Flow Units ............... LPS
  Process Models:
    Rainfall/Runoff ........ YES
    RDII ................... NO
    Snowmelt ............... NO
    Groundwater ............ NO
    Flow Routing ........... YES
    Ponding Allowed ........ NO
    Water Quality .......... NO
  Infiltration Method ...... HORTON
  Flow Routing Method ...... DYNWAVE
  Surcharge Method ......... EXTRAN
  Starting Date ............ 08/28/2015 08:00:00
  Ending Date .............. 08/28/2015 16:00:00
  Antecedent Dry Days ...... 8.0
  Report Time Step ......... 00:01:00
  Wet Time Step ............ 00:01:00
  Dry Time Step ............ 00:01:00
  Routing Time Step ........ 30.00 sec
  Variable Time Step ....... YES
  Maximum Trials ........... 8
  Number of Threads ........ 1
  Head Tolerance ........... 0.001500 m
  
  
  **************************        Volume         Depth
  Runoff Quantity Continuity     hectare-m            mm
  **************************     ---------       -------
  Total Precipitation ......         3.976        65.628
  Evaporation Loss .........         0.000         0.000
  Infiltration Loss ........         0.238         3.937
  Surface Runoff ...........         3.677        60.701
  Final Storage ............         0.061         1.006
  Continuity Error (%) .....        -0.024
  
  
  **************************        Volume        Volume
  Flow Routing Continuity        hectare-m      10^6 ltr
  **************************     ---------     ---------
  Dry Weather Inflow .......         0.630         6.296
  Wet Weather Inflow .......         3.678        36.776
  Groundwater Inflow .......         0.000         0.000
  RDII Inflow ..............         0.000         0.000
  External Inflow ..........         0.105         1.045
  External Outflow .........         3.077        30.774
  Flooding Loss ............         1.723        17.228
  Evaporation Loss .........         0.000         0.000
  Exfiltration Loss ........         0.000         0.000
  Initial Stored Volume ....         0.303         3.031
  Final Stored Volume ......         0.173         1.731
  Continuity Error (%) .....        -5.482
  
  
  *************************
  Highest Continuity Errors
  *************************
  Node JK-storage (-46.10%)
  Node YS02001884 (5.16%)
  Node YS02001583 (-5.11%)
  Node CC-storage (-3.92%)
  Node HS02004842 (1.73%)
  
  
  ***************************
  Time-Step Critical Elements
  ***************************
  Link WS02006252WS02006251 (70.05%)
  Link YS02001793JiankangQianchi (11.66%)
  Link WS02006280WS02006229 (8.42%)
  Link WS02006238WS02006235 (2.56%)
  Link YS02001791YS02001793 (1.40%)
  
  
  ********************************
  Highest Flow Instability Indexes
  ********************************
  Link WS02006113WS02006111 (24)
  Link WS02006111WS02006112 (19)
  Link WS02006238WS02006235 (15)
  Link WS02004404WS02004405 (15)
  Link WS02006252WS02006251 (13)
  
  
  *********************************
  Most Frequent Nonconverging Nodes
  *********************************
  Node CC-1 (6.99%)
  Node CC-2 (6.99%)
  Node JK-1 (6.99%)
  Node JK-2 (6.99%)
  Node WSC (6.99%)
  
  
  *************************
  Routing Time Step Summary
  *************************
  Minimum Time Step           :     0.00 sec
  Average Time Step           :     1.50 sec
  Maximum Time Step           :    30.00 sec
  % of Time in Steady State   :     0.00
  Average Iterations per Step :     2.89
  % of Steps Not Converging   :     6.99
  Time Step Frequencies       :
     30.000 - 13.228 sec      :     0.01 %
     13.228 -  5.833 sec      :     0.12 %
      5.833 -  2.572 sec      :    14.74 %
      2.572 -  1.134 sec      :    39.56 %
      1.134 -  0.500 sec      :    45.58 %
  
  
  ***************************
  Subcatchment Runoff Summary
  ***************************
  
  ------------------------------------------------------------------------------------------------------------------------------
                            Total      Total      Total      Total     Imperv       Perv      Total       Total     Peak  Runoff
                           Precip      Runon       Evap      Infil     Runoff     Runoff     Runoff      Runoff   Runoff   Coeff
  Subcatchment                 mm         mm         mm         mm         mm         mm         mm    10^6 ltr      LPS
  ------------------------------------------------------------------------------------------------------------------------------
  sub0                      65.63       0.00       0.00       0.99      59.79       3.60      63.39        0.05    41.06   0.966
  sub1                      65.63       0.00       0.00       1.69      57.17       5.53      62.70        0.42   275.54   0.955
  sub10                     65.63       0.00       0.00       1.19      59.10       4.06      63.16        0.70   470.23   0.962
  sub11                     65.63       0.00       0.00       1.17      59.12       4.08      63.20        0.73   520.95   0.963
  sub12                     65.63       0.00       0.00       1.91      55.93       6.62      62.55        0.55   419.70   0.953
  sub14                     65.63       0.00       0.00       1.34      58.47       4.57      63.04        0.60   416.26   0.961
  sub15                     65.63       0.00       0.00       5.23      44.97      14.46      59.43        1.02   639.90   0.906
  sub16                     65.63       0.00       0.00       5.41      43.07      16.25      59.32        0.62   430.15   0.904
  sub17                     65.63       0.00       0.00       5.28      43.71      15.73      59.43        0.51   349.74   0.906
  sub2                      65.63       0.00       0.00       7.48      40.44      16.80      57.25        0.53   280.36   0.872
  sub22                     65.63       0.00       0.00       7.94      36.63      20.29      56.92        3.60  2129.16   0.867
  sub23                     65.63       0.00       0.00       6.47      40.49      17.82      58.31        2.78  1768.45   0.888
  sub3                      65.63       0.00       0.00       8.13      40.40      16.15      56.55        1.27   601.69   0.862
  sub4                      65.63       0.00       0.00       1.88      57.00       5.34      62.34        1.30   665.71   0.950
  sub5                      65.63       0.00       0.00       1.04      59.73       3.56      63.29        0.72   475.12   0.964
  sub60                     65.63       0.00       0.00       1.80      56.55       6.08      62.63        0.82   590.50   0.954
  sub61                     65.63       0.00       0.00       2.60      53.34       8.56      61.90        1.14   818.95   0.943
  sub62                     65.63       0.00       0.00       1.20      59.09       4.05      63.15        1.73  1151.99   0.962
  sub63                     65.63       0.00       0.00       4.80      45.63      14.23      59.86        1.36   918.61   0.912
  sub64                     65.63       0.00       0.00       2.43      54.58       7.42      62.00        1.49   932.54   0.945
  sub65                     65.63       0.00       0.00       2.10      55.85       6.43      62.28        1.71  1041.52   0.949
  sub66                     65.63       0.00       0.00       5.95      45.52      13.08      58.60        2.73  1353.23   0.893
  sub67                     65.63       0.00       0.00       1.15      59.14       4.10      63.23        1.18   890.99   0.964
  sub68                     65.63       0.00       0.00       2.16      55.26       7.03      62.29        1.71  1183.01   0.949
  sub69                     65.63       0.00       0.00       1.92      55.67       7.93      63.60        2.35  1386.34   0.969
  sub7                      65.63       0.00       0.00       1.32      58.48       4.59      63.07        0.21   153.85   0.961
  sub70                     65.63       0.00       0.00       6.42      43.15      15.90      59.05        1.71   759.73   0.900
  sub71                     65.63       0.00       0.00       1.23      59.05       4.02      63.08        1.65  1007.70   0.961
  sub72                     65.63       0.00       0.00       1.09      59.63       3.50      63.14        0.87   487.53   0.962
  sub8                      65.63       0.00       0.00       1.33      58.47       4.57      63.05        0.40   283.02   0.961
  sub9                      65.63       0.00       0.00       1.34      58.47       4.57      63.04        0.30   211.55   0.961
  
  
  ******************
  Node Depth Summary
  ******************
  
  ---------------------------------------------------------------------------------
                                 Average  Maximum  Maximum  Time of Max    Reported
                                   Depth    Depth      HGL   Occurrence   Max Depth
  Node                 Type       Meters   Meters   Meters  days hr:min      Meters
  ---------------------------------------------------------------------------------
  HS02004478           JUNCTION     0.21     1.59    10.82     0  01:59        1.58
  HS02004479           JUNCTION     0.28     1.69    10.89     0  01:57        1.67
  HS02004480           JUNCTION     0.25     1.67    10.91     0  01:57        1.64
  HS02004770           JUNCTION     0.25     1.42    11.25     0  01:54        1.42
  HS02004777           JUNCTION     0.28     1.48    11.28     0  01:54        1.48
  HS02004785           JUNCTION     0.18     1.49    11.39     0  01:54        1.36
  HS02004788           JUNCTION     0.15     1.42    11.32     0  01:54        1.38
  HS02004792           JUNCTION     0.20     1.60    11.12     0  01:54        1.60
  HS02004799           JUNCTION     0.30     1.76    10.97     0  01:54        1.76
  HS02004802           JUNCTION     0.31     1.80    10.93     0  01:59        1.80
  HS02004807           JUNCTION     0.28     1.92    11.09     0  01:57        1.92
  HS02004817           JUNCTION     0.58     2.44    11.29     0  01:57        2.41
  HS02004824           JUNCTION     0.16     2.01    11.41     0  01:57        2.01
  HS02004830           JUNCTION     0.17     2.03    11.50     0  01:57        1.98
  HS02004837           JUNCTION     0.14     1.95    11.53     0  01:57        1.91
  HS02004842           JUNCTION     0.43     2.22    11.49     0  01:57        2.22
  HS02004848           JUNCTION     0.12     2.07    11.67     0  01:57        1.90
  HS02004852           JUNCTION     0.12     2.12    11.63     0  01:57        1.96
  HS02004856           JUNCTION     0.18     2.07    11.50     0  01:57        2.02
  HS02004862           JUNCTION     0.14     2.00    11.38     0  01:57        2.00
  HS02004870           JUNCTION     0.13     2.10    11.39     0  01:57        2.01
  HS02004876           JUNCTION     0.18     2.26    11.29     0  01:57        2.09
  HS02004881           JUNCTION     0.12     2.15    11.18     0  01:56        2.15
  HS02004901           JUNCTION     0.26     1.42    11.24     0  01:54        1.42
  WS02001211           JUNCTION     0.63     0.82     5.66     0  02:05        0.82
  WS02001212           JUNCTION     0.37     0.58     5.64     0  02:05        0.58
  WS02001213           JUNCTION     0.59     0.87     5.64     0  02:05        0.87
  WS02003059           JUNCTION     0.65     0.94     5.63     0  02:05        0.94
  WS02003060           JUNCTION     0.38     0.69     5.62     0  02:04        0.69
  WS02003066           JUNCTION     0.23     0.46     6.01     0  02:02        0.46
  WS02003067           JUNCTION     0.54     0.89     6.21     0  02:01        0.89
  WS02003069           JUNCTION     0.42     0.78     5.37     0  02:05        0.78
  WS02003072           JUNCTION     0.48     0.82     5.19     0  02:05        0.82
  WS02003073           JUNCTION     0.29     0.52     4.58     0  02:04        0.52
  WS02004138           JUNCTION     0.13     0.14     7.39     0  00:32        0.14
  WS02004139           JUNCTION     0.57     0.75     5.66     0  02:05        0.75
  WS02004401           JUNCTION     0.76     1.92     7.92     0  02:01        1.91
  WS02004402           JUNCTION     0.78     1.86     7.82     0  02:01        1.84
  WS02004403           JUNCTION     0.79     1.78     7.71     0  02:01        1.78
  WS02004404           JUNCTION     0.85     1.79     7.64     0  02:01        1.78
  WS02004405           JUNCTION     0.85     1.73     7.58     0  02:01        1.73
  WS02004406           JUNCTION     0.84     1.61     7.44     0  02:01        1.61
  WS02004407           JUNCTION     0.26     0.97     7.28     0  02:01        0.97
  WS02004409           JUNCTION     0.52     1.42     7.19     0  02:02        1.41
  WS02004410           JUNCTION     0.53     1.32     7.04     0  02:01        1.31
  WS02004411           JUNCTION     0.54     1.22     6.90     0  02:02        1.22
  WS02004412           JUNCTION     0.54     1.12     6.76     0  02:01        1.11
  WS02004413           JUNCTION     0.68     1.15     6.62     0  02:01        1.15
  WS02006109           JUNCTION     0.94     2.64     9.26     0  01:54        2.64
  WS02006110           JUNCTION     0.89     2.41     9.00     0  02:01        2.40
  WS02006111           JUNCTION     0.40     1.80     8.50     0  02:00        1.79
  WS02006112           JUNCTION     0.96     2.68     8.56     0  00:00        2.44
  WS02006113           JUNCTION     0.47     1.86     8.75     0  02:02        1.86
  WS02006115           JUNCTION     0.67     2.02     8.16     0  02:01        2.02
  WS02006116           JUNCTION     0.74     2.01     8.05     0  02:01        2.01
  WS02006228           JUNCTION     0.98     3.03     9.68     0  01:57        3.02
  WS02006229           JUNCTION     0.98     3.23     9.92     0  01:59        3.22
  WS02006230           JUNCTION     0.91     2.65     9.39     0  01:51        2.65
  WS02006231           JUNCTION     0.65     2.20     9.32     0  02:26        2.20
  WS02006232           JUNCTION     0.74     2.18     9.22     0  01:38        2.18
  WS02006234           JUNCTION     0.63     1.96     9.12     0  01:37        1.96
  WS02006235           JUNCTION     0.64     2.00     9.16     0  01:38        2.00
  WS02006238           JUNCTION     0.67     2.05     9.19     0  01:40        2.02
  WS02006239           JUNCTION     0.61     2.03     9.24     0  01:40        1.88
  WS02006240           JUNCTION     0.56     1.97     9.27     0  01:40        1.69
  WS02006242           JUNCTION     0.60     1.55     8.82     0  01:37        1.55
  WS02006243           JUNCTION     0.49     1.48     8.90     0  01:37        1.48
  WS02006245           JUNCTION     0.48     1.56     9.05     0  01:37        1.56
  WS02006247           JUNCTION     0.49     1.47     8.97     0  01:37        1.47
  WS02006248           JUNCTION     0.44     1.10     8.69     0  01:38        1.10
  WS02006249           JUNCTION     0.47     1.09     8.69     0  01:38        1.09
  WS02006251           JUNCTION     0.54     2.21     9.88     0  01:57        2.21
  WS02006252           JUNCTION     0.39     1.50     9.74     0  01:35        1.50
  WS02006253           JUNCTION     0.61     3.52    11.16     0  01:57        3.47
  WS02006256           JUNCTION     0.93     2.35     9.28     0  00:11        2.35
  WS02006280           JUNCTION     0.27     1.75    10.02     0  02:00        1.74
  WS02006284           JUNCTION     0.53     1.95    10.35     0  01:59        1.94
  WS02006287           JUNCTION     0.27     1.74    10.70     0  01:59        1.73
  WSF200               JUNCTION     0.22     0.53     5.76     0  02:02        0.53
  YS02001580           JUNCTION     0.08     1.05     9.59     0  01:54        0.77
  YS02001583           JUNCTION     0.11     1.14     9.64     0  01:54        0.82
  YS02001586           JUNCTION     0.18     1.13     9.30     0  01:54        1.13
  YS02001590           JUNCTION     0.27     1.40     9.26     0  01:54        1.37
  YS02001593           JUNCTION     0.21     1.35     9.21     0  01:54        1.29
  YS02001596           JUNCTION     0.27     1.69     9.11     0  01:54        1.65
  YS02001600           JUNCTION     0.33     1.87     9.00     0  01:52        1.87
  YS02001601           JUNCTION     0.52     2.06     8.90     0  01:52        2.06
  YS02001602           JUNCTION     0.43     1.87     8.77     0  01:53        1.87
  YS02001605           JUNCTION     0.40     1.78     8.68     0  01:53        1.78
  YS02001607           JUNCTION     0.40     1.68     8.53     0  01:54        1.68
  YS02001610           JUNCTION     0.44     1.68     8.48     0  01:53        1.68
  YS02001613           JUNCTION     0.40     1.70     8.54     0  01:54        1.70
  YS02001616           JUNCTION     0.33     1.61     8.52     0  01:54        1.61
  YS02001619           JUNCTION     0.31     1.61     8.54     0  01:54        1.61
  YS02001622           JUNCTION     0.30     1.62     8.52     0  01:54        1.62
  YS02001625           JUNCTION     0.55     1.78     8.38     0  01:54        1.78
  YS02001629           JUNCTION     0.41     1.85     8.40     0  01:53        1.85
  YS02001633           JUNCTION     0.48     2.07     8.52     0  01:54        2.07
  YS02001641           JUNCTION     0.46     1.95     8.39     0  01:58        1.94
  YS02001644           JUNCTION     0.46     1.92     8.35     0  01:58        1.92
  YS02001647           JUNCTION     0.24     1.82     8.43     0  01:59        1.73
  YS02001649           JUNCTION     0.28     2.05     8.44     0  01:58        1.95
  YS02001652           JUNCTION     0.18     2.16     8.76     0  01:58        1.89
  YS02001655           JUNCTION     0.12     2.18     9.03     0  01:58        1.92
  YS02001658           JUNCTION     0.09     2.30     9.44     0  01:58        1.93
  YS02001661           JUNCTION     0.13     1.93     9.34     0  01:59        1.93
  YS02001664           JUNCTION     0.05     0.84     8.76     0  01:59        0.63
  YS02001745           JUNCTION     0.05     2.01     9.52     0  01:59        0.99
  YS02001748           JUNCTION     0.08     2.27     9.35     0  01:58        1.34
  YS02001751           JUNCTION     0.10     2.20     9.08     0  01:59        1.46
  YS02001754           JUNCTION     0.15     2.20     8.81     0  01:59        1.64
  YS02001757           JUNCTION     0.31     2.21     8.47     0  01:58        1.98
  YS02001759           JUNCTION     0.24     2.20     8.56     0  01:59        1.99
  YS02001762           JUNCTION     0.24     2.15     8.55     0  01:58        1.97
  YS02001765           JUNCTION     0.22     2.10     8.55     0  01:58        1.94
  YS02001767           JUNCTION     0.22     2.03     8.52     0  01:58        1.92
  YS02001770           JUNCTION     0.23     1.95     8.45     0  01:58        1.95
  YS02001774           JUNCTION     0.29     2.00     8.42     0  01:58        2.00
  YS02001779           JUNCTION     0.13     1.68     8.37     0  01:57        1.68
  YS02001783           JUNCTION     0.22     1.43     7.58     0  01:56        1.24
  YS02001784           JUNCTION     0.23     1.22     7.29     0  01:56        1.12
  YS02001786           JUNCTION     0.20     0.98     7.01     0  01:56        0.88
  YS02001788           JUNCTION     0.14     0.63     6.60     0  02:00        0.63
  YS02001790           JUNCTION     0.17     0.73     6.37     0  02:01        0.72
  YS02001791           JUNCTION     0.11     0.44     5.91     0  02:01        0.44
  YS02001793           JUNCTION     0.07     0.26     5.09     0  02:00        0.25
  YS02001882           JUNCTION     0.28     1.77     8.48     0  01:55        1.66
  YS02001884           JUNCTION     0.37     1.84     8.46     0  01:55        1.76
  YS02001887           JUNCTION     0.44     1.87     8.41     0  01:55        1.85
  YS02001890           JUNCTION     0.47     1.81     8.32     0  01:55        1.81
  YS02001895           JUNCTION     0.25     1.57     8.32     0  01:56        1.57
  YS02001898           JUNCTION     0.26     1.58     8.31     0  01:56        1.57
  YS02001901           JUNCTION     0.37     1.68     8.29     0  01:56        1.68
  YS02001904           JUNCTION     0.35     1.65     8.28     0  01:56        1.64
  YS02001907           JUNCTION     0.66     1.96     8.25     0  01:56        1.96
  YS02001910           JUNCTION     0.46     1.96     8.47     0  01:57        1.90
  YS02001915           JUNCTION     0.28     1.91     8.63     0  01:57        1.80
  YS02001918           JUNCTION     0.15     1.81     8.88     0  01:57        1.47
  YS02001920           JUNCTION     0.23     2.14     9.15     0  01:57        1.55
  YS02001923           JUNCTION     0.12     2.03     9.29     0  01:57        1.31
  YS02001926           JUNCTION     0.15     1.90     9.35     0  01:57        1.15
  YS02001929           JUNCTION     0.08     1.78     9.47     0  01:57        0.94
  YS02006553           JUNCTION     0.66     2.01     8.30     0  01:56        1.99
  YS02006556           JUNCTION     0.64     2.03     8.34     0  01:56        1.98
  YS02006558           JUNCTION     0.68     2.08     8.35     0  01:56        2.05
  YS02006561           JUNCTION     0.14     1.13     7.79     0  01:56        0.90
  YS02163301           JUNCTION     0.43     1.97     8.49     0  01:54        1.97
  YS02163601           JUNCTION     0.52     2.04     8.44     0  01:58        2.02
  YS02164001           JUNCTION     0.45     1.96     8.42     0  01:58        1.94
  YSB1154              JUNCTION     0.41     1.99    11.04     0  02:00        1.99
  YSB1171              JUNCTION     0.55     1.95    10.85     0  01:54        1.95
  YSB1174              JUNCTION     0.37     1.85    10.96     0  02:00        1.85
  YSB6556              JUNCTION     0.31     1.80    10.97     0  01:54        1.77
  CC-1                 OUTFALL      0.00     0.00     0.00     0  00:00        0.00
  CC-2                 OUTFALL      0.00     0.00     0.00     0  00:00        0.00
  JK-1                 OUTFALL      0.00     0.00     0.00     0  00:00        0.00
  JK-2                 OUTFALL      0.00     0.00     0.00     0  00:00        0.00
  WSC                  OUTFALL      0.29     0.52     1.19     0  02:06        0.52
  CC-storage           STORAGE      0.44     1.38     6.88     0  02:50        1.38
  JK-storage           STORAGE      0.06     3.00     3.80     0  00:05        3.00
  XR-storage           STORAGE      7.88     9.26     7.26     0  08:00        9.26
  
  
  *******************
  Node Inflow Summary
  *******************
  
  -------------------------------------------------------------------------------------------------
                                  Maximum  Maximum                  Lateral       Total        Flow
                                  Lateral    Total  Time of Max      Inflow      Inflow     Balance
                                   Inflow   Inflow   Occurrence      Volume      Volume       Error
  Node                 Type           LPS      LPS  days hr:min    10^6 ltr    10^6 ltr     Percent
  -------------------------------------------------------------------------------------------------
  HS02004478           JUNCTION      0.00  2305.50     0  02:00           0        8.62      -0.007
  HS02004479           JUNCTION      0.00   481.83     0  01:57           0       0.841       0.090
  HS02004480           JUNCTION      0.00  2117.63     0  01:55           0        6.36       0.038
  HS02004770           JUNCTION   1768.45  1768.45     0  02:02        2.78        3.01       0.088
  HS02004777           JUNCTION      0.03   768.58     0  01:54    0.000864        1.83       0.291
  HS02004785           JUNCTION      0.15   771.64     0  01:54     0.00432        1.83       0.007
  HS02004788           JUNCTION    641.57   845.90     0  02:02        1.07         2.9       0.005
  HS02004792           JUNCTION   2129.44  2975.48     0  02:02         3.6         6.5      -0.000
  HS02004799           JUNCTION    416.26  1748.57     0  01:55         0.6        5.79       0.046
  HS02004802           JUNCTION      0.00  1234.31     0  02:04           0        2.41       0.163
  HS02004807           JUNCTION    520.95  1707.43     0  02:02       0.734         2.6       0.156
  HS02004817           JUNCTION      0.60  1196.85     0  02:03      0.0173        1.92       0.859
  HS02004824           JUNCTION    665.76  1234.16     0  02:03         1.3        2.11       0.029
  HS02004830           JUNCTION      0.15   657.61     0  01:55     0.00432        1.01       0.119
  HS02004837           JUNCTION    476.58   867.26     0  01:55        0.88        1.32       0.029
  HS02004842           JUNCTION      0.00   863.36     0  01:55           0       0.751       1.762
  HS02004848           JUNCTION    601.69  1100.72     0  01:56        1.27        1.83      -0.009
  HS02004852           JUNCTION      0.00  1093.18     0  01:56           0        1.65      -0.002
  HS02004856           JUNCTION    211.55  1216.50     0  01:56       0.303        1.95       0.024
  HS02004862           JUNCTION    280.56  1258.28     0  01:57       0.539        2.49      -0.031
  HS02004870           JUNCTION    283.02  1372.87     0  01:57       0.403        2.89      -0.016
  HS02004876           JUNCTION    275.54  1506.35     0  02:03       0.417        3.31       0.017
  HS02004881           JUNCTION    153.85  1654.85     0  02:01       0.213        3.52      -0.000
  HS02004901           JUNCTION    430.15   683.16     0  02:02       0.621       0.954       0.180
  WS02001211           JUNCTION      7.35   207.27     0  02:50       0.212        5.44       0.612
  WS02001212           JUNCTION      0.00   214.10     0  02:49           0        5.41       0.290
  WS02001213           JUNCTION      0.00   217.78     0  02:49           0        5.39       0.332
  WS02003059           JUNCTION      0.00   224.23     0  02:48           0        5.38       0.596
  WS02003060           JUNCTION     16.53  1522.22     0  02:04       0.476        14.6       0.103
  WS02003066           JUNCTION      0.00  1325.78     0  02:02           0        8.77       0.017
  WS02003067           JUNCTION      0.00  1325.30     0  02:02           0        8.77       0.051
  WS02003069           JUNCTION      0.32  1522.32     0  02:05     0.00922        14.6       0.107
  WS02003072           JUNCTION      0.00  1522.29     0  02:05           0        14.6       0.144
  WS02003073           JUNCTION      1.82  1524.17     0  02:06      0.0524        14.6       0.149
  WS02004138           JUNCTION      0.00   190.00     0  00:29           0        5.25       0.054
  WS02004139           JUNCTION      0.32   190.32     0  00:32     0.00924        5.26       0.507
  WS02004401           JUNCTION      0.00  1324.78     0  02:01           0        8.89       0.129
  WS02004402           JUNCTION      0.00  1325.32     0  02:01           0        8.88       0.127
  WS02004403           JUNCTION      0.00  1325.00     0  02:01           0        8.87       0.124
  WS02004404           JUNCTION      0.16  1325.31     0  02:01     0.00467        8.86       0.101
  WS02004405           JUNCTION      0.04  1326.05     0  02:01      0.0011        8.85       0.144
  WS02004406           JUNCTION      0.00  1325.43     0  02:01           0        8.84       0.248
  WS02004407           JUNCTION      0.00  1325.27     0  02:01           0        8.81       0.018
  WS02004409           JUNCTION      0.00  1325.49     0  02:02           0        8.81       0.037
  WS02004410           JUNCTION      0.00  1325.58     0  02:02           0        8.81       0.056
  WS02004411           JUNCTION      0.00  1325.44     0  02:02           0         8.8       0.069
  WS02004412           JUNCTION      0.00  1325.46     0  02:02           0         8.8       0.093
  WS02004413           JUNCTION      0.00  1325.66     0  02:02           0        8.79       0.159
  WS02006109           JUNCTION      1.23  1308.01     0  00:00      0.0354        8.64       0.136
  WS02006110           JUNCTION      0.00  1122.98     0  02:20           0        8.33      -0.421
  WS02006111           JUNCTION      0.00  1176.04     0  00:00           0        8.36      -0.451
  WS02006112           JUNCTION    349.74  2307.30     0  00:00        0.51        8.91      -0.003
  WS02006113           JUNCTION      0.00  1123.10     0  02:20           0        8.32      -0.541
  WS02006115           JUNCTION      0.00  2152.75     0  00:00           0        8.89       0.052
  WS02006116           JUNCTION      0.00  1325.37     0  02:01           0        8.89       0.019
  WS02006228           JUNCTION      0.00  1288.94     0  02:00           0        8.59       0.075
  WS02006229           JUNCTION      0.00  2306.62     0  02:00           0        10.9       0.097
  WS02006230           JUNCTION     10.28  1027.41     0  01:59       0.296        4.64       0.125
  WS02006231           JUNCTION      0.00   453.30     0  02:00           0        3.39      -0.144
  WS02006232           JUNCTION      0.00   453.25     0  01:58           0        3.39       0.149
  WS02006234           JUNCTION      0.00   453.05     0  01:59           0        3.39      -0.084
  WS02006235           JUNCTION      0.00   425.33     0  02:00           0        3.39       0.133
  WS02006238           JUNCTION      0.00   415.52     0  02:11           0        3.01      -0.078
  WS02006239           JUNCTION      0.00   415.16     0  02:11           0        3.01      -0.107
  WS02006240           JUNCTION      0.00   414.85     0  02:11           0        3.01       0.044
  WS02006242           JUNCTION      0.00   414.91     0  02:11           0        3.01       0.073
  WS02006243           JUNCTION      0.00   439.38     0  01:37           0        2.62       0.019
  WS02006245           JUNCTION      0.00   453.63     0  01:37           0        2.63       0.291
  WS02006247           JUNCTION      0.00   474.85     0  01:37           0        2.63      -0.029
  WS02006248           JUNCTION      0.00   508.25     0  01:37           0        2.89      -0.025
  WS02006249           JUNCTION      0.00  1375.95     0  02:02           0         5.6       0.116
  WS02006251           JUNCTION      0.08  1694.60     0  02:02     0.00222        5.78       0.022
  WS02006252           JUNCTION      0.00   518.92     0  02:02           0        2.53      -0.357
  WS02006253           JUNCTION     41.06  1694.66     0  02:01      0.0514        3.59       0.007
  WS02006256           JUNCTION      0.00   300.00     0  01:45           0        1.18      -0.014
  WS02006280           JUNCTION      0.00  2305.57     0  01:59           0         8.6       0.010
  WS02006284           JUNCTION      0.10  2305.41     0  02:00     0.00275         8.6      -0.007
  WS02006287           JUNCTION      0.00  2305.67     0  01:59           0         8.6       0.009
  WSF200               JUNCTION      0.00  1325.94     0  02:02           0        8.77       0.009
  YS02001580           JUNCTION      0.00   128.55     0  01:54           0     0.00426      -2.137
  YS02001583           JUNCTION      0.00   176.92     0  01:54           0      0.0153      -4.866
  YS02001586           JUNCTION    759.73   759.73     0  02:04        1.71        1.72       0.078
  YS02001590           JUNCTION      0.00   317.89     0  02:04           0        1.32      -0.044
  YS02001593           JUNCTION      0.00   317.97     0  02:09           0        1.32       0.005
  YS02001596           JUNCTION      0.00   317.99     0  02:09           0        1.32      -0.003
  YS02001600           JUNCTION      0.00   317.93     0  02:00           0        1.32       0.015
  YS02001601           JUNCTION   1386.34  1703.79     0  02:03        2.35        3.68       0.019
  YS02001602           JUNCTION      0.00   521.34     0  01:53           0        2.28       0.020
  YS02001605           JUNCTION      0.00   521.18     0  01:53           0        2.18       0.021
  YS02001607           JUNCTION      0.00   521.88     0  01:53           0        2.18       0.088
  YS02001610           JUNCTION      0.00   748.46     0  02:04           0        2.42       0.090
  YS02001613           JUNCTION      0.00   529.12     0  01:53           0           2       0.080
  YS02001616           JUNCTION      0.00   529.03     0  01:53           0           2       0.025
  YS02001619           JUNCTION   1353.23  1353.23     0  02:04        2.73        4.49       0.000
  YS02001622           JUNCTION      0.00   959.13     0  02:02           0        4.24       0.003
  YS02001625           JUNCTION      0.00  1345.80     0  02:05           0        4.41       0.197
  YS02001629           JUNCTION      0.00   949.92     0  02:22           0        3.66       0.015
  YS02001633           JUNCTION   1041.72  1385.90     0  01:56        1.72        5.15       0.067
  YS02001641           JUNCTION      0.00  1384.99     0  01:56           0        4.93       0.057
  YS02001644           JUNCTION    932.58  1809.30     0  01:56        1.49        6.41       0.048
  YS02001647           JUNCTION      0.00  1808.85     0  01:56           0        6.02       0.005
  YS02001649           JUNCTION      0.00  2068.06     0  01:56           0        7.38       0.004
  YS02001652           JUNCTION      0.00   937.58     0  02:02           0        1.36      -0.084
  YS02001655           JUNCTION      0.15   937.59     0  02:02     0.00443        1.36       0.055
  YS02001658           JUNCTION      0.00   937.55     0  02:02           0        1.36      -0.073
  YS02001661           JUNCTION      0.00   935.31     0  02:02           0        1.36       0.022
  YS02001664           JUNCTION    918.61   918.61     0  02:02        1.36        1.36      -0.007
  YS02001745           JUNCTION    590.50   590.50     0  02:02       0.823       0.824       0.126
  YS02001748           JUNCTION      0.04   614.59     0  02:00      0.0013       0.825      -0.217
  YS02001751           JUNCTION      0.01   614.86     0  02:00    0.000317       0.833       0.114
  YS02001754           JUNCTION      0.26   615.60     0  02:00     0.00749       0.846      -0.174
  YS02001757           JUNCTION      0.00  3419.67     0  02:07           0        10.9       0.034
  YS02001759           JUNCTION    818.99  1386.91     0  02:01        1.14         2.7      -0.004
  YS02001762           JUNCTION      0.00   821.15     0  02:07           0        1.56       0.004
  YS02001765           JUNCTION      0.00   820.45     0  02:07           0        1.56       0.009
  YS02001767           JUNCTION      0.54   819.46     0  02:07      0.0154        1.56       0.002
  YS02001770           JUNCTION   1152.14  1152.14     0  02:02        1.73        1.78      -0.014
  YS02001774           JUNCTION      0.00   587.40     0  02:02           0       0.254       0.433
  YS02001779           JUNCTION      0.01   588.44     0  02:02    0.000144        0.21      -0.354
  YS02001783           JUNCTION      0.00  1166.93     0  02:00           0        3.99       0.007
  YS02001784           JUNCTION      1.06  1168.10     0  02:00      0.0305        4.02       0.013
  YS02001786           JUNCTION      0.06  1167.95     0  02:01     0.00162        4.02       0.015
  YS02001788           JUNCTION      0.07  1167.96     0  02:00     0.00204        4.02       0.007
  YS02001790           JUNCTION      0.15  1179.80     0  02:00     0.00446        4.02       0.018
  YS02001791           JUNCTION      0.00  1292.70     0  02:01           0        4.02      -0.018
  YS02001793           JUNCTION      0.00  1255.80     0  02:02           0        4.02       0.004
  YS02001882           JUNCTION      0.00    65.65     0  01:55           0      0.0125       5.256
  YS02001884           JUNCTION      0.00    73.89     0  01:55           0      0.0481       5.439
  YS02001887           JUNCTION    891.44   892.03     0  02:01        1.19        1.22       0.370
  YS02001890           JUNCTION      0.00   891.35     0  02:01           0        1.18       0.424
  YS02001895           JUNCTION      0.00   518.03     0  02:06           0        1.05       0.158
  YS02001898           JUNCTION      0.00   518.42     0  02:07           0        1.05       0.017
  YS02001901           JUNCTION      0.00   518.41     0  02:06           0        1.06       0.309
  YS02001904           JUNCTION      0.00   518.27     0  02:06           0        1.06       0.269
  YS02001907           JUNCTION      0.00  2031.29     0  02:02           0        3.65       0.480
  YS02001910           JUNCTION      0.00  1514.26     0  02:02           0         2.6       0.275
  YS02001915           JUNCTION   1007.72  1514.28     0  02:02        1.65        2.64       0.062
  YS02001918           JUNCTION      0.00   507.06     0  02:02           0        1.02      -0.002
  YS02001920           JUNCTION      2.87   506.89     0  02:03      0.0827           1       0.111
  YS02001923           JUNCTION      0.04   503.91     0  02:02     0.00109       0.906      -0.071
  YS02001926           JUNCTION      0.05   616.25     0  01:57      0.0015       0.885      -0.019
  YS02001929           JUNCTION    487.53   487.53     0  02:03       0.868       0.871      -0.014
  YS02006553           JUNCTION      0.00   797.04     0  02:19           0         2.3       0.519
  YS02006556           JUNCTION      0.00   796.99     0  02:19           0        2.31       0.351
  YS02006558           JUNCTION   1183.89  1183.89     0  02:02        1.74        4.02       0.094
  YS02006561           JUNCTION      0.00  1180.04     0  01:56           0        3.99      -0.006
  YS02163301           JUNCTION      0.00   950.25     0  02:22           0        3.65       0.039
  YS02163601           JUNCTION      0.11  1385.79     0  01:56     0.00317        4.92       0.099
  YS02164001           JUNCTION      0.00  1385.54     0  01:56           0        4.92       0.048
  YSB1154              JUNCTION    475.12   475.12     0  02:02       0.717       0.718       0.199
  YSB1171              JUNCTION      0.00  1118.04     0  02:02           0         1.4       0.430
  YSB1174              JUNCTION    419.70   419.70     0  02:01       0.547       0.547       0.229
  YSB6556              JUNCTION      0.00   475.34     0  02:02           0       0.719       0.166
  CC-1                 OUTFALL       0.00   683.00     0  00:05           0        6.31       0.000
  CC-2                 OUTFALL       0.00   683.00     0  00:05           0        4.98       0.000
  JK-1                 OUTFALL       0.00  1000.00     0  00:05           0        2.53       0.000
  JK-2                 OUTFALL       0.00  1000.00     0  01:56           0        2.38       0.000
  WSC                  OUTFALL       0.00  1524.20     0  02:06           0        14.6       0.000
  CC-storage           STORAGE       0.00  3419.09     0  02:07           0        13.1      -3.770
  JK-storage           STORAGE       0.00  1296.78     0  02:00           0        4.17     -31.554
  XR-storage           STORAGE     200.00   200.00     0  00:00        5.76        6.36       0.001
  
  
  **********************
  Node Surcharge Summary
  **********************
  
  Surcharging occurs when water rises above the top of the highest conduit.
  ---------------------------------------------------------------------
                                               Max. Height   Min. Depth
                                   Hours       Above Crown    Below Rim
  Node                 Type      Surcharged         Meters       Meters
  ---------------------------------------------------------------------
  HS02004478           JUNCTION        0.49          0.671        0.269
  HS02004479           JUNCTION        0.62          0.889        0.161
  HS02004480           JUNCTION        0.66          0.957        0.143
  HS02004770           JUNCTION        0.57          0.720        0.000
  HS02004777           JUNCTION        0.58          0.780        0.000
  HS02004785           JUNCTION        0.53          0.790        0.000
  HS02004788           JUNCTION        0.51          0.720        0.000
  HS02004792           JUNCTION        0.63          0.900        0.000
  HS02004799           JUNCTION        0.75          1.060        0.000
  HS02004802           JUNCTION        0.67          1.094        0.116
  HS02004807           JUNCTION        0.65          1.220        0.000
  HS02004817           JUNCTION        1.25          1.740        0.000
  HS02004824           JUNCTION        0.51          1.310        0.000
  HS02004830           JUNCTION        0.49          1.330        0.000
  HS02004837           JUNCTION        0.45          1.255        0.085
  HS02004842           JUNCTION        0.58          1.520        0.000
  HS02004848           JUNCTION        0.41          1.370        0.000
  HS02004852           JUNCTION        0.44          1.420        0.000
  HS02004856           JUNCTION        0.41          1.300        0.000
  HS02004862           JUNCTION        0.45          1.300        0.000
  HS02004870           JUNCTION        0.47          1.400        0.000
  HS02004876           JUNCTION        0.52          1.560        0.000
  HS02004881           JUNCTION        0.50          1.450        0.000
  HS02004901           JUNCTION        0.58          0.720        0.000
  WS02004401           JUNCTION        1.62          0.919        0.741
  WS02004402           JUNCTION        1.64          0.855        0.885
  WS02004403           JUNCTION        1.64          0.779        1.251
  WS02004404           JUNCTION        1.72          0.787        1.993
  WS02004405           JUNCTION        1.70          0.733        2.067
  WS02004406           JUNCTION        1.69          0.615        1.835
  WS02004409           JUNCTION        1.02          0.415        1.945
  WS02004410           JUNCTION        0.99          0.319        2.221
  WS02004411           JUNCTION        0.91          0.221        2.309
  WS02004412           JUNCTION        0.79          0.117        2.193
  WS02004413           JUNCTION        1.33          0.153        2.047
  WS02006109           JUNCTION        2.03          1.820        0.000
  WS02006110           JUNCTION        1.84          1.503        0.347
  WS02006111           JUNCTION        1.32          0.985        0.885
  WS02006112           JUNCTION        1.87          1.680        0.000
  WS02006113           JUNCTION        1.33          1.059        0.871
  WS02006115           JUNCTION        1.55          1.012        1.238
  WS02006116           JUNCTION        1.56          0.955        1.335
  WS02006228           JUNCTION        2.02          2.199        0.001
  WS02006229           JUNCTION        0.95          1.047        0.023
  WS02006230           JUNCTION        1.71          1.570        0.000
  WS02006231           JUNCTION        1.76          1.488        0.042
  WS02006232           JUNCTION        1.87          1.480        0.000
  WS02006234           JUNCTION        1.79          1.240        0.000
  WS02006235           JUNCTION        1.79          1.290        0.000
  WS02006238           JUNCTION        1.82          1.330        0.100
  WS02006239           JUNCTION        1.79          1.290        0.000
  WS02006240           JUNCTION        1.79          1.262        0.128
  WS02006242           JUNCTION        1.81          0.820        0.000
  WS02006243           JUNCTION        1.76          0.770        0.000
  WS02006245           JUNCTION        1.73          0.850        0.000
  WS02006247           JUNCTION        1.74          0.760        0.000
  WS02006248           JUNCTION        1.69          0.380        0.000
  WS02006249           JUNCTION        1.70          0.390        0.000
  WS02006251           JUNCTION        1.56          1.180        0.000
  WS02006252           JUNCTION        1.68          1.100        0.000
  WS02006253           JUNCTION        1.57          2.480        0.000
  WS02006256           JUNCTION        7.44          2.050        0.000
  WS02006280           JUNCTION        0.78          0.695        0.085
  WS02006284           JUNCTION        0.69          0.666        0.134
  WS02006287           JUNCTION        0.60          0.744        0.146
  YS02001580           JUNCTION        0.62          0.450        0.000
  YS02001583           JUNCTION        0.63          0.500        0.000
  YS02001586           JUNCTION        0.72          0.510        0.000
  YS02001590           JUNCTION        0.79          0.750        0.000
  YS02001593           JUNCTION        0.79          0.728        0.112
  YS02001596           JUNCTION        0.90          0.964        0.106
  YS02001600           JUNCTION        1.06          1.190        0.000
  YS02001601           JUNCTION        1.43          1.440        0.000
  YS02001602           JUNCTION        1.33          1.270        0.000
  YS02001605           JUNCTION        1.28          1.180        0.000
  YS02001607           JUNCTION        0.73          0.680        0.000
  YS02001610           JUNCTION        0.75          0.680        0.000
  YS02001613           JUNCTION        0.71          0.700        0.000
  YS02001616           JUNCTION        0.67          0.610        0.000
  YS02001619           JUNCTION        0.65          0.610        0.000
  YS02001622           JUNCTION        0.65          0.620        0.000
  YS02001625           JUNCTION        0.85          0.780        0.000
  YS02001629           JUNCTION        0.56          0.470        0.000
  YS02001633           JUNCTION        0.86          1.048        0.012
  YS02001641           JUNCTION        0.74          0.954        0.146
  YS02001644           JUNCTION        0.68          0.920        0.000
  YS02001647           JUNCTION        0.43          0.820        0.080
  YS02001649           JUNCTION        0.49          1.050        0.000
  YS02001652           JUNCTION        0.33          1.130        0.000
  YS02001655           JUNCTION        0.25          1.179        0.021
  YS02001658           JUNCTION        0.18          1.300        0.000
  YS02001661           JUNCTION        0.04          0.862        0.528
  YS02001745           JUNCTION        0.01          1.006        0.344
  YS02001748           JUNCTION        0.11          1.190        0.000
  YS02001751           JUNCTION        0.19          1.200        0.000
  YS02001754           JUNCTION        0.25          1.150        0.000
  YS02001757           JUNCTION        0.48          1.210        0.000
  YS02001759           JUNCTION        0.40          1.196        0.014
  YS02001762           JUNCTION        0.37          1.150        0.000
  YS02001765           JUNCTION        0.35          1.100        0.000
  YS02001767           JUNCTION        0.33          1.030        0.000
  YS02001770           JUNCTION        0.32          0.920        0.000
  YS02001774           JUNCTION        0.37          1.001        0.049
  YS02001779           JUNCTION        0.27          0.680        0.000
  YS02001783           JUNCTION        0.54          0.634        0.966
  YS02001784           JUNCTION        0.52          0.419        1.071
  YS02001786           JUNCTION        0.42          0.177        1.253
  YS02001882           JUNCTION        0.49          0.768        0.062
  YS02001884           JUNCTION        0.50          0.783        0.087
  YS02001887           JUNCTION        0.53          0.818        0.132
  YS02001890           JUNCTION        0.55          0.760        0.000
  YS02001895           JUNCTION        0.48          0.572        0.178
  YS02001898           JUNCTION        0.47          0.546        0.194
  YS02001901           JUNCTION        0.52          0.683        0.187
  YS02001904           JUNCTION        0.51          0.650        0.200
  YS02001907           JUNCTION        0.76          0.950        0.000
  YS02001910           JUNCTION        0.57          0.963        0.137
  YS02001915           JUNCTION        0.49          0.912        0.088
  YS02001918           JUNCTION        0.41          0.810        0.000
  YS02001920           JUNCTION        0.42          1.140        0.000
  YS02001923           JUNCTION        0.12          0.820        0.000
  YS02001926           JUNCTION        0.15          0.900        0.000
  YS02001929           JUNCTION        0.01          0.780        0.000
  YS02006553           JUNCTION        0.77          1.011        0.179
  YS02006556           JUNCTION        0.66          0.993        0.357
  YS02006558           JUNCTION        0.65          0.981        0.419
  YS02006561           JUNCTION        0.38          0.332        0.818
  YS02163301           JUNCTION        0.84          0.975        0.055
  YS02163601           JUNCTION        0.89          1.042        0.038
  YS02164001           JUNCTION        0.76          0.958        0.142
  YSB1154              JUNCTION        0.87          1.287        0.113
  YSB1171              JUNCTION        0.88          1.100        0.000
  YSB1174              JUNCTION        0.79          1.154        0.096
  YSB6556              JUNCTION        0.72          1.100        0.000
  
  
  *********************
  Node Flooding Summary
  *********************
  
  Flooding refers to all water that overflows a node, whether it ponds or not.
  --------------------------------------------------------------------------
                                                             Total   Maximum
                                 Maximum   Time of Max       Flood    Ponded
                        Hours       Rate    Occurrence      Volume     Depth
  Node                 Flooded       LPS   days hr:min    10^6 ltr    Meters
  --------------------------------------------------------------------------
  HS02004770              0.38   1311.78      0  02:02       0.845     0.000
  HS02004777              0.01     71.43      0  01:54       0.001     0.000
  HS02004785              0.01    222.30      0  01:54       0.001     0.000
  HS02004788              0.01    151.69      0  01:54       0.001     0.000
  HS02004792              0.39   1832.75      0  02:02       1.319     0.000
  HS02004799              0.21    264.90      0  02:01       0.123     0.000
  HS02004807              0.13    476.10      0  02:02       0.141     0.000
  HS02004817              0.01      7.54      0  01:57       0.000     0.000
  HS02004824              0.04     38.54      0  02:03       0.003     0.000
  HS02004830              0.01      6.64      0  01:57       0.000     0.000
  HS02004842              0.03    113.16      0  01:57       0.002     0.000
  HS02004848              0.01     41.40      0  01:57       0.000     0.000
  HS02004852              0.01    124.02      0  01:57       0.000     0.000
  HS02004856              0.01    376.22      0  01:57       0.002     0.000
  HS02004862              0.05    390.37      0  01:57       0.004     0.000
  HS02004870              0.01    313.79      0  01:57       0.000     0.000
  HS02004876              0.01     69.39      0  01:57       0.000     0.000
  HS02004881              0.01    262.00      0  01:56       0.000     0.000
  HS02004901              0.45    683.01      0  02:02       0.720     0.000
  WS02006109              0.43    313.63      0  02:02       0.279     0.000
  WS02006112              0.01   1153.65      0  00:00       0.035     0.000
  WS02006230              0.70    574.49      0  01:59       0.977     0.000
  WS02006232              0.19     11.47      0  01:38       0.000     0.000
  WS02006234              0.78    212.12      0  01:37       0.246     0.000
  WS02006235              0.01     12.50      0  01:38       0.000     0.000
  WS02006239              0.01     19.20      0  01:40       0.000     0.000
  WS02006242              0.91    137.33      0  02:11       0.390     0.000
  WS02006243              0.01     59.72      0  01:37       0.000     0.000
  WS02006245              0.01     52.95      0  01:37       0.000     0.000
  WS02006247              0.01     86.78      0  01:37       0.000     0.000
  WS02006248              1.28    342.71      0  01:50       1.239     0.000
  WS02006249              1.56   1314.93      0  02:02       3.679     0.000
  WS02006251              0.01     87.21      0  01:57       0.000     0.000
  WS02006252              0.32    518.65      0  02:02       0.348     0.000
  WS02006253              0.01    109.38      0  01:57       0.000     0.000
  WS02006256              0.94    297.74      0  02:10       0.581     0.000
  YS02001580              0.01    105.98      0  01:54       0.000     0.000
  YS02001583              0.01     80.94      0  01:54       0.000     0.000
  YS02001586              0.50    442.28      0  02:04       0.385     0.000
  YS02001590              0.01      6.93      0  01:54       0.000     0.000
  YS02001600              0.01      2.22      0  01:52       0.000     0.000
  YS02001601              0.63   1305.91      0  02:03       1.399     0.000
  YS02001602              0.47     62.02      0  02:06       0.096     0.000
  YS02001605              0.01      4.23      0  01:54       0.000     0.000
  YS02001607              0.01     11.71      0  01:54       0.000     0.000
  YS02001610              0.42    748.44      0  02:04       0.666     0.000
  YS02001613              0.01     17.06      0  01:54       0.000     0.000
  YS02001616              0.01     19.47      0  01:54       0.000     0.000
  YS02001619              0.01     18.97      0  01:54       0.000     0.000
  YS02001622              0.01      5.61      0  01:54       0.000     0.000
  YS02001625              0.35   1345.72      0  02:05       0.958     0.000
  YS02001629              0.12    272.40      0  02:00       0.067     0.000
  YS02001644              0.16   1042.58      0  02:02       0.382     0.000
  YS02001649              0.01     28.71      0  01:59       0.000     0.000
  YS02001652              0.01     61.53      0  01:58       0.000     0.000
  YS02001658              0.01    360.27      0  01:58       0.000     0.000
  YS02001748              0.01    255.67      0  01:58       0.000     0.000
  YS02001751              0.01     14.15      0  01:59       0.000     0.000
  YS02001754              0.01      7.52      0  01:59       0.000     0.000
  YS02001757              0.01     21.50      0  01:59       0.000     0.000
  YS02001762              0.01      9.86      0  01:58       0.000     0.000
  YS02001765              0.01     11.11      0  01:58       0.000     0.000
  YS02001767              0.01      5.41      0  01:58       0.000     0.000
  YS02001770              0.01     26.91      0  01:59       0.000     0.000
  YS02001779              0.15    587.83      0  02:02       0.192     0.000
  YS02001890              0.18    377.29      0  02:01       0.122     0.000
  YS02001907              0.36   2030.81      0  02:02       1.348     0.000
  YS02001918              0.01    241.00      0  01:57       0.003     0.000
  YS02001920              0.01     47.11      0  01:57       0.000     0.000
  YS02001923              0.01    354.19      0  01:57       0.002     0.000
  YS02001926              0.01    379.92      0  01:57       0.001     0.000
  YS02001929              0.01    145.19      0  01:57       0.000     0.000
  YSB1171                 0.29   1117.96      0  02:02       0.683     0.000
  YSB6556                 0.01     12.50      0  01:54       0.000     0.000
  
  
  **********************
  Storage Volume Summary
  **********************
  
  ------------------------------------------------------------------------------------------------
                         Average    Avg   Evap  Exfil     Maximum    Max    Time of Max    Maximum
                          Volume   Pcnt   Pcnt   Pcnt      Volume   Pcnt     Occurrence    Outflow
  Storage Unit           1000 m   Full   Loss   Loss     1000 m   Full    days hr:min        LPS
  ------------------------------------------------------------------------------------------------
  CC-storage               1.229   19.2    0.0    0.0       3.847   60.0       0  02:50    1566.00
  JK-storage               0.003    1.0    0.0    0.0       0.151   51.7       0  00:05    2300.00
  XR-storage               0.946   65.7    0.0    0.0       1.111   77.1       0  08:00     190.00
  
  
  ***********************
  Outfall Loading Summary
  ***********************
  
  -----------------------------------------------------------
                         Flow       Avg       Max       Total
                         Freq      Flow      Flow      Volume
  Outfall Node           Pcnt       LPS       LPS    10^6 ltr
  -----------------------------------------------------------
  CC-1                  50.79    609.25    683.00       6.309
  CC-2                  78.99    358.64    683.00       4.975
  JK-1                  78.51    135.23   1000.00       2.532
  JK-2                  46.46    227.52   1000.00       2.384
  WSC                   99.99    600.27   1524.20      14.574
  -----------------------------------------------------------
  System                70.95   1930.91   4194.29      30.773
  
  
  ********************
  Link Flow Summary
  ********************
  
  -----------------------------------------------------------------------------
                                 Maximum  Time of Max   Maximum    Max/    Max/
                                  |Flow|   Occurrence   |Veloc|    Full    Full
  Link                 Type          LPS  days hr:min     m/sec    Flow   Depth
  -----------------------------------------------------------------------------
  1                    CONDUIT   1524.20     0  02:06      3.71    0.53    0.52
  HS02004478WS02006287 CONDUIT   2305.67     0  01:59      2.58    0.65    1.00
  HS02004479HS02004480 CONDUIT    480.99     0  01:57      0.69    0.46    1.00
  HS02004480HS02004478 CONDUIT   2118.59     0  01:55      3.03    8.92    1.00
  HS02004770HS02004777 CONDUIT    768.55     0  01:54      1.10    1.41    1.00
  HS02004777HS02004785 CONDUIT    771.49     0  01:54      1.15    0.95    1.00
  HS02004785HS02004788 CONDUIT    619.13     0  02:21      1.35    4.67    1.00
  HS02004788HS02004792 CONDUIT    846.04     0  02:02      1.44    0.56    1.00
  HS02004792HS02004799 CONDUIT   1574.86     0  01:55      2.25    0.96    1.00
  HS02004799HS02004480 CONDUIT   1746.85     0  01:55      2.50    2.21    1.00
  HS02004802HS02004478 CONDUIT   1234.44     0  02:04      1.76    1.09    1.00
  HS02004807HS02004802 CONDUIT   1234.31     0  02:04      1.76    2.36    1.00
  HS02004817HS02004807 CONDUIT   1196.86     0  02:03      1.71    0.71    1.00
  HS02004817HS02004824 CONDUIT   1196.25     0  02:03      1.71    0.54    1.00
  HS02004824HS02004830 CONDUIT    657.46     0  01:55      0.94    0.86    1.00
  HS02004830HS02004837 CONDUIT    672.63     0  01:55      1.06    0.67    1.00
  HS02004837HS02004842 CONDUIT    863.36     0  01:55      1.23    0.52    1.00
  HS02004842HS02004848 CONDUIT    862.34     0  01:55      1.38    0.50    1.00
  HS02004848HS02004852 CONDUIT   1093.18     0  01:56      1.64    1.23    1.00
  HS02004852HS02004856 CONDUIT   1108.25     0  01:56      1.58    1.27    1.00
  HS02004856HS02004862 CONDUIT   1123.74     0  01:57      1.72    1.12    1.00
  HS02004862HS02004870 CONDUIT   1226.20     0  01:57      1.93    1.32    1.00
  HS02004870HS02004876 CONDUIT   1238.44     0  02:03      1.80    0.82    1.00
  HS02004876HS02004881 CONDUIT   1506.15     0  02:03      2.40   16.02    1.00
  HS02004881HS02006253 CONDUIT   1655.37     0  02:02      2.36    0.32    1.00
  HS02004901HS02004770 CONDUIT    265.79     0  02:17      0.38    1.00    1.00
  WS02001211WS02001212 CONDUIT    214.10     0  02:49      0.54    0.16    0.70
  WS02001212WS02001213 CONDUIT    217.78     0  02:49      1.03    0.34    0.57
  WS02001213WS02003059 CONDUIT    224.23     0  02:48      0.47    0.37    0.90
  WS02003059WS02003060 CONDUIT    229.58     0  02:48      0.66    0.15    0.82
  WS02003060WS02003069 CONDUIT   1522.00     0  02:05      2.09    0.60    0.61
  WS02003066WSF200     CONDUIT   1325.94     0  02:02      3.26    0.22    0.39
  WS02003067WS02003066 CONDUIT   1325.78     0  02:02      2.02    0.42    0.56
  WS02003069WS02003072 CONDUIT   1522.29     0  02:05      1.90    0.73    0.67
  WS02003072WS02003073 CONDUIT   1522.35     0  02:06      2.06    3.29    0.62
  WS02004138WS02004139 CONDUIT    190.00     0  00:32      2.17    0.04    0.42
  WS02004139WS02001211 CONDUIT    199.92     0  02:50      0.55    0.25    0.61
  WS02004401WS02004402 CONDUIT   1325.32     0  02:01      2.07    1.59    1.00
  WS02004402WS02004403 CONDUIT   1325.00     0  02:01      1.84    1.90    1.00
  WS02004403WS02004404 CONDUIT   1325.15     0  02:01      1.69    0.96    1.00
  WS02004404WS02004405 CONDUIT   1326.01     0  02:01      1.86   12.99    1.00
  WS02004405WS02004406 CONDUIT   1325.43     0  02:01      1.80    2.61    1.00
  WS02004406WS02004407 CONDUIT   1325.27     0  02:01      1.72    0.59    0.98
  WS02004407WS02004409 CONDUIT   1325.49     0  02:02      1.89    0.47    0.98
  WS02004409WS02004410 CONDUIT   1325.58     0  02:02      1.69    1.71    1.00
  WS02004410WS02004411 CONDUIT   1325.44     0  02:02      1.69    1.81    1.00
  WS02004411WS02004412 CONDUIT   1325.46     0  02:02      1.69    1.88    1.00
  WS02004412WS02004413 CONDUIT   1325.66     0  02:02      1.69    0.89    1.00
  WS02004413WS02003067 CONDUIT   1325.30     0  02:02      2.04    0.57    0.77
  WS02006109WS02006110 CONDUIT   1306.78     0  00:00      3.15    2.51    1.00
  WS02006110WS02006113 CONDUIT   1123.10     0  02:20      2.23    1.02    1.00
  WS02006111WS02006112 CONDUIT   2307.30     0  00:00      9.18    1.10    1.00
  WS02006112WS02006115 CONDUIT   2152.75     0  00:00      2.85    1.27    1.00
  WS02006113WS02006111 CONDUIT   1176.04     0  00:00      2.68    1.41    1.00
  WS02006115WS02006116 CONDUIT   1325.37     0  02:01      1.81    1.70    1.00
  WS02006116WS02004401 CONDUIT   1324.78     0  02:01      2.21    1.83    1.00
  WS02006228WS02006109 CONDUIT   1288.79     0  02:00      2.56    5.63    1.00
  WS02006229WS02006228 CONDUIT   1288.94     0  02:00      2.56    4.27    1.00
  WS02006230WS02006229 CONDUIT   1017.13     0  01:59      2.64   22.64    1.00
  WS02006231WS02006230 CONDUIT    453.30     0  02:00      1.29    6.88    1.00
  WS02006232WS02006231 CONDUIT    453.25     0  01:58      1.18    0.95    1.00
  WS02006234WS02006232 CONDUIT    453.05     0  01:59      1.18    0.92    1.00
  WS02006235WS02006234 CONDUIT    425.33     0  02:00      1.11    4.49    1.00
  WS02006238WS02006235 CONDUIT    415.52     0  02:11      1.23    0.93    1.00
  WS02006239WS02006238 CONDUIT    415.16     0  02:11      1.08    1.33    1.00
  WS02006240WS02006239 CONDUIT    414.85     0  02:11      1.09    1.31    1.00
  WS02006242WS02006240 CONDUIT    414.91     0  02:11      1.08    1.65    1.00
  WS02006243WS02006242 CONDUIT    331.61     0  01:37      1.14    0.71    1.00
  WS02006245WS02006243 CONDUIT    439.38     0  01:37      1.38    1.30    1.00
  WS02006247WS02006245 CONDUIT    453.63     0  01:37      1.41    3.60    1.00
  WS02006248WS02006247 CONDUIT    474.85     0  01:37      1.37    1.03    1.00
  WS02006249WS02006248 CONDUIT    508.25     0  01:37      1.45    2.78    1.00
  WS02006251WS02006249 CONDUIT   1375.95     0  02:02      3.58    3.97    1.00
  WS02006252WS02006251 CONDUIT   1298.45     0  00:05     20.66    4.77    1.00
  WS02006253WS02006251 CONDUIT   1694.52     0  02:02      4.40    5.08    1.00
  WS02006256WS02006235 CONDUIT    192.02     0  04:15      2.72    2.03    1.00
  WS02006280WS02006229 CONDUIT   2306.62     0  02:00      3.98    0.49    1.00
  WS02006284WS02006280 CONDUIT   2305.57     0  01:59      2.96    0.97    1.00
  WS02006287WS02006284 CONDUIT   2305.32     0  02:00      2.94    1.07    1.00
  WSF200WS02003060     CONDUIT   1326.27     0  02:02      2.31    0.29    0.51
  YS02001580YS02001583 CONDUIT    128.55     0  01:54      0.70    0.50    1.00
  YS02001583YS02001586 CONDUIT    166.72     0  01:54      0.71    0.25    1.00
  YS02001586YS02001590 CONDUIT    317.89     0  02:04      1.27    0.56    1.00
  YS02001590YS02001593 CONDUIT    317.97     0  02:09      1.12    2.00    1.00
  YS02001593YS02001596 CONDUIT    317.99     0  02:09      1.76    0.50    1.00
  YS02001596YS02001600 CONDUIT    317.93     0  02:00      1.24    0.62    1.00
  YS02001600YS02001601 CONDUIT    317.86     0  02:06      1.12    0.55    1.00
  YS02001601YS02001602 CONDUIT    521.34     0  01:53      1.84    1.88    1.00
  YS02001602YS02001605 CONDUIT    521.18     0  01:53      1.84   11.03    1.00
  YS02001605YS02001607 CONDUIT    521.88     0  01:53      1.85    2.86    1.00
  YS02001607YS02001610 CONDUIT    528.21     0  01:53      0.67    0.50    1.00
  YS02001610YS02001613 CONDUIT    529.12     0  01:53      0.67    0.61    1.00
  YS02001613YS02001616 CONDUIT    529.03     0  01:53      0.68    0.45    1.00
  YS02001616YS02001619 CONDUIT    509.19     0  02:31      0.67    0.88    1.00
  YS02001619YS02001622 CONDUIT    959.13     0  02:02      1.22    1.41    1.00
  YS02001622YS02001625 CONDUIT    960.01     0  02:02      1.22    0.51    1.00
  YS02001625YS02001629 CONDUIT    949.92     0  02:22      1.21    0.45    1.00
  YS02001629YS02163301 CONDUIT    950.25     0  02:22      1.21    1.17    1.00
  YS02001633YS02163601 CONDUIT   1385.68     0  01:56      1.76    1.45    1.00
  YS02001641YS02001644 CONDUIT   1384.47     0  01:56      1.76    4.48    1.00
  YS02001644YS02001647 CONDUIT   1808.85     0  01:56      2.30    1.06    1.00
  YS02001647YS02001649 CONDUIT   1819.40     0  01:56      2.33    0.96    1.00
  YS02001649YS02001757 CONDUIT   2068.77     0  01:56      2.63    1.26    1.00
  YS02001652YS02001649 CONDUIT    937.43     0  02:02      1.19    0.46    1.00
  YS02001655YS02001652 CONDUIT    937.58     0  02:02      1.31    0.46    1.00
  YS02001658YS02001655 CONDUIT    937.43     0  02:02      1.89    0.40    1.00
  YS02001661YS02001658 CONDUIT    937.55     0  02:02      2.35    0.37    1.00
  YS02001664YS02001661 CONDUIT    935.31     0  02:02      2.37    0.29    0.92
  YS02001745YS02001748 CONDUIT    614.54     0  02:00      2.23    0.24    1.00
  YS02001748YS02001751 CONDUIT    614.85     0  02:00      1.72    0.31    1.00
  YS02001751YS02001754 CONDUIT    615.34     0  02:00      1.38    0.30    1.00
  YS02001754YS02001757 CONDUIT    615.52     0  02:00      0.78    0.25    1.00
  YS02001757CaochengTiaoxuchi CONDUIT   3419.09     0  02:07      7.06    1.48    1.00
  YS02001759YS02001757 CONDUIT   1387.76     0  02:01      1.77    0.99    1.00
  YS02001762YS02001759 CONDUIT    822.68     0  02:07      1.05    0.95    1.00
  YS02001765YS02001762 CONDUIT    821.15     0  02:07      1.05    0.77    1.00
  YS02001767YS02001765 CONDUIT    820.45     0  02:07      1.04    1.03    1.00
  YS02001770YS02001767 CONDUIT    818.93     0  02:07      1.04    3.24    1.00
  YS02001774YS02001770 CONDUIT    587.40     0  02:02      0.75    0.38    1.00
  YS02001779YS02001774 CONDUIT    588.43     0  02:02      0.75    0.30    1.00
  YS02001783YS02001784 CONDUIT   1167.04     0  02:00      2.32    1.61    1.00
  YS02001784YS02001785 CONDUIT   1167.89     0  02:01      2.32    2.72    1.00
  YS02001786YS02001788 CONDUIT   1167.89     0  02:00      2.49    2.25    0.89
  YS02001788YS02001790 CONDUIT   1179.65     0  02:00      2.72    0.87    0.84
  YS02001790YS02001791 CONDUIT   1292.70     0  02:01      3.43    1.41    0.71
  YS02001791YS02001793 CONDUIT   1255.80     0  02:02      6.79    0.54    0.43
  YS02001793JiankangQianchi CONDUIT   1296.78     0  02:00     24.51    0.10    0.61
  YS02001882YS02001884 CONDUIT     65.65     0  01:55      0.13    0.08    1.00
  YS02001884YS02001887 CONDUIT     73.89     0  01:55      0.09    0.10    1.00
  YS02001887YS02001890 CONDUIT    891.35     0  02:01      1.13    1.53    1.00
  YS02001890YS02001895 CONDUIT    518.03     0  02:06      0.66    0.24    1.00
  YS02001895YS02001898 CONDUIT    518.42     0  02:07      0.66    0.90    1.00
  YS02001898YS02001901 CONDUIT    518.41     0  02:06      0.66    0.33    1.00
  YS02001901YS02001904 CONDUIT    518.27     0  02:06      0.66    0.80    1.00
  YS02001904YS02001907 CONDUIT    517.84     0  02:07      0.66    0.18    1.00
  YS02001907YS02006553 CONDUIT    797.04     0  02:19      0.89    0.94    1.00
  YS02001910YS02001907 CONDUIT   1514.21     0  02:03      1.93    0.85    1.00
  YS02001915YS02001910 CONDUIT   1514.26     0  02:02      1.93    0.75    1.00
  YS02001918YS02001915 CONDUIT    506.67     0  02:02      0.65    0.28    1.00
  YS02001920YS02001918 CONDUIT    507.06     0  02:02      0.65    0.49    1.00
  YS02001923YS02001920 CONDUIT    504.02     0  02:03      0.69    0.23    1.00
  YS02001926YS02001923 CONDUIT    503.87     0  02:02      0.96    0.72    1.00
  YS02001929YS02001926 CONDUIT    503.28     0  02:02      1.13    0.24    1.00
  YS02006553YS02006556 CONDUIT    796.99     0  02:19      1.01    0.68    1.00
  YS02006556YS02006558 CONDUIT    797.63     0  02:19      1.02    0.63    1.00
  YS02006558YS02006561 CONDUIT   1180.04     0  01:56      4.17    2.61    1.00
  YS02006561YS02001783 CONDUIT   1166.93     0  02:00      2.32    0.60    1.00
  YS02163301YS02001633 CONDUIT    950.10     0  02:22      1.21    0.89    1.00
  YS02163601YS02164001 CONDUIT   1385.54     0  01:56      1.76    1.23    1.00
  YS02164001YS02001641 CONDUIT   1384.99     0  01:56      1.76    1.89    1.00
  YSB1154YSB6556       CONDUIT    475.34     0  02:02      1.24    0.85    1.00
  YSB1171HS02004479    CONDUIT    481.83     0  01:57      0.96    0.32    1.00
  YSB1174YSB1171       CONDUIT    420.10     0  02:01      1.09    0.64    1.00
  YSB6556YSB1171       CONDUIT    476.47     0  02:02      1.24    0.49    1.00
  CC-R1                PUMP       683.00     0  00:05              1.00
  CC-R2                PUMP       683.00     0  00:05              1.00
  CC-S1                PUMP       200.00     0  01:35              1.00
  CC-S2                PUMP       200.00     0  00:05              1.00
  JK-R1                PUMP      1000.00     0  00:05              1.00
  JK-R2                PUMP      1000.00     0  01:56              1.00
  JK-S                 PUMP       300.00     0  01:45              1.00
  XR-1                 PUMP        95.00     0  00:10              1.00
  XR-2                 PUMP        95.00     0  00:29              1.00
  XR-3                 PUMP         0.00     0  00:00              0.00
  XR-4                 PUMP         0.00     0  00:00              0.00
  
  
  ***************************
  Flow Classification Summary
  ***************************
  
  -------------------------------------------------------------------------------------
                      Adjusted    ---------- Fraction of Time in Flow Class ---------- 
                       /Actual         Up    Down  Sub   Sup   Up    Down  Norm  Inlet 
  Conduit               Length    Dry  Dry   Dry   Crit  Crit  Crit  Crit  Ltd   Ctrl  
  -------------------------------------------------------------------------------------
  1                       1.00   0.00  0.00  0.00  0.00  1.00  0.00  0.00  0.53  0.00
  HS02004478WS02006287    1.00   0.16  0.00  0.00  0.67  0.17  0.00  0.00  0.59  0.00
  HS02004479HS02004480    1.00   0.04  0.00  0.00  0.96  0.00  0.00  0.00  0.11  0.00
  HS02004480HS02004478    1.00   0.13  0.00  0.00  0.62  0.00  0.00  0.25  0.00  0.00
  HS02004770HS02004777    1.00   0.00  0.13  0.00  0.87  0.00  0.00  0.00  0.03  0.00
  HS02004777HS02004785    1.00   0.00  0.00  0.00  1.00  0.00  0.00  0.00  0.12  0.00
  HS02004785HS02004788    1.00   0.00  0.00  0.00  1.00  0.00  0.00  0.00  0.00  0.00
  HS02004788HS02004792    1.00   0.00  0.00  0.00  0.99  0.01  0.00  0.00  0.90  0.00
  HS02004792HS02004799    1.00   0.00  0.00  0.00  0.99  0.01  0.00  0.00  0.86  0.00
  HS02004799HS02004480    1.00   0.00  0.03  0.00  0.84  0.00  0.12  0.00  0.00  0.00
  HS02004802HS02004478    1.00   0.13  0.01  0.00  0.86  0.00  0.00  0.00  0.02  0.00
  HS02004807HS02004802    1.00   0.13  0.00  0.00  0.85  0.00  0.00  0.02  0.00  0.00
  HS02004817HS02004807    1.00   0.00  0.13  0.00  0.87  0.00  0.00  0.00  0.01  0.00
  HS02004817HS02004824    1.00   0.00  0.00  0.00  1.00  0.00  0.00  0.00  0.81  0.00
  HS02004824HS02004830    1.00   0.00  0.00  0.00  1.00  0.00  0.00  0.00  0.01  0.00
  HS02004830HS02004837    1.00   0.00  0.00  0.00  1.00  0.00  0.00  0.00  0.88  0.00
  HS02004837HS02004842    1.00   0.00  0.00  0.00  0.99  0.01  0.00  0.00  0.11  0.00
  HS02004842HS02004848    1.00   0.00  0.13  0.00  0.87  0.00  0.00  0.00  0.56  0.00
  HS02004848HS02004852    1.00   0.13  0.00  0.00  0.87  0.00  0.00  0.00  0.70  0.00
  HS02004852HS02004856    1.00   0.13  0.01  0.00  0.86  0.00  0.00  0.00  0.67  0.00
  HS02004856HS02004862    1.00   0.00  0.17  0.00  0.83  0.00  0.00  0.00  0.74  0.00
  HS02004862HS02004870    1.00   0.00  0.00  0.00  1.00  0.00  0.00  0.00  0.03  0.00
  HS02004870HS02004876    1.00   0.00  0.00  0.00  1.00  0.00  0.00  0.00  0.86  0.00
  HS02004876HS02004881    1.00   0.01  0.00  0.00  0.85  0.14  0.00  0.00  0.00  0.00
  HS02004881HS02006253    1.00   0.03  0.02  0.00  0.35  0.00  0.00  0.60  0.27  0.00
  HS02004901HS02004770    1.00   0.13  0.00  0.00  0.87  0.00  0.00  0.00  0.00  0.00
  WS02001211WS02001212    1.00   0.00  0.02  0.00  0.98  0.00  0.00  0.00  0.00  0.00
  WS02001212WS02001213    1.00   0.02  0.00  0.00  0.35  0.00  0.62  0.00  0.00  0.00
  WS02001213WS02003059    1.00   0.00  0.01  0.00  0.99  0.00  0.00  0.00  0.00  0.00
  WS02003059WS02003060    1.00   0.00  0.00  0.00  1.00  0.00  0.00  0.00  0.03  0.00
  WS02003060WS02003069    1.00   0.00  0.00  0.00  0.97  0.03  0.00  0.00  0.44  0.00
  WS02003066WSF200        1.00   0.06  0.00  0.00  0.00  0.94  0.00  0.00  0.69  0.00
  WS02003067WS02003066    1.00   0.05  0.01  0.00  0.94  0.00  0.00  0.00  0.00  0.00
  WS02003069WS02003072    1.00   0.00  0.00  0.00  0.99  0.01  0.00  0.00  0.61  0.00
  WS02003072WS02003073    1.00   0.00  0.00  0.00  0.00  0.00  0.00  1.00  0.00  0.00
  WS02004138WS02004139    1.00   0.02  0.00  0.00  0.97  0.01  0.00  0.00  0.98  0.00
  WS02004139WS02001211    1.00   0.00  0.01  0.00  0.99  0.00  0.00  0.00  0.00  0.00
  WS02004401WS02004402    1.00   0.00  0.00  0.00  1.00  0.00  0.00  0.00  0.00  0.00
  WS02004402WS02004403    1.00   0.00  0.00  0.00  1.00  0.00  0.00  0.00  0.00  0.00
  WS02004403WS02004404    1.00   0.00  0.00  0.00  1.00  0.00  0.00  0.00  0.00  0.00
  WS02004404WS02004405    1.00   0.00  0.00  0.00  1.00  0.00  0.00  0.00  0.01  0.00
  WS02004405WS02004406    1.00   0.00  0.00  0.00  1.00  0.00  0.00  0.00  0.00  0.00
  WS02004406WS02004407    1.00   0.00  0.01  0.00  0.99  0.00  0.00  0.00  0.01  0.00
  WS02004407WS02004409    1.00   0.01  0.00  0.00  0.98  0.01  0.00  0.00  0.86  0.00
  WS02004409WS02004410    1.00   0.01  0.00  0.00  0.99  0.00  0.00  0.00  0.00  0.00
  WS02004410WS02004411    1.00   0.01  0.00  0.00  0.99  0.00  0.00  0.00  0.01  0.00
  WS02004411WS02004412    1.00   0.01  0.00  0.00  0.99  0.00  0.00  0.00  0.00  0.00
  WS02004412WS02004413    1.00   0.01  0.00  0.00  0.99  0.00  0.00  0.00  0.02  0.00
  WS02004413WS02003067    1.00   0.01  0.04  0.00  0.00  0.00  0.95  0.00  0.00  0.00
  WS02006109WS02006110    1.00   0.00  0.00  0.00  1.00  0.00  0.00  0.00  0.00  0.00
  WS02006110WS02006113    1.00   0.00  0.00  0.00  1.00  0.00  0.00  0.00  0.00  0.00
  WS02006111WS02006112    1.00   0.00  0.00  0.00  1.00  0.00  0.00  0.00  0.79  0.00
  WS02006112WS02006115    1.00   0.00  0.00  0.00  1.00  0.00  0.00  0.00  0.00  0.00
  WS02006113WS02006111    1.00   0.00  0.00  0.00  0.20  0.80  0.00  0.00  0.06  0.00
  WS02006115WS02006116    1.00   0.00  0.00  0.00  1.00  0.00  0.00  0.00  0.00  0.00
  WS02006116WS02004401    1.00   0.00  0.00  0.00  1.00  0.00  0.00  0.00  0.00  0.00
  WS02006228WS02006109    1.00   0.00  0.00  0.00  1.00  0.00  0.00  0.00  0.00  0.00
  WS02006229WS02006228    1.00   0.00  0.00  0.00  1.00  0.00  0.00  0.00  0.00  0.00
  WS02006230WS02006229    1.00   0.00  0.00  0.00  1.00  0.00  0.00  0.00  0.00  0.00
  WS02006231WS02006230    1.00   0.00  0.00  0.00  0.29  0.00  0.70  0.00  0.00  0.00
  WS02006232WS02006231    1.00   0.00  0.00  0.00  0.99  0.00  0.00  0.00  0.01  0.00
  WS02006234WS02006232    1.00   0.00  0.01  0.00  0.99  0.00  0.00  0.00  0.03  0.00
  WS02006235WS02006234    1.00   0.02  0.00  0.00  0.88  0.00  0.10  0.00  0.00  0.00
  WS02006238WS02006235    1.00   0.02  0.00  0.00  0.98  0.00  0.00  0.00  0.00  0.00
  WS02006239WS02006238    1.00   0.02  0.00  0.00  0.98  0.00  0.00  0.00  0.07  0.00
  WS02006240WS02006239    1.00   0.02  0.00  0.00  0.61  0.00  0.00  0.37  0.03  0.00
  WS02006242WS02006240    1.00   0.01  0.00  0.00  0.98  0.00  0.01  0.00  0.00  0.00
  WS02006243WS02006242    1.00   0.01  0.00  0.00  0.98  0.00  0.00  0.01  0.57  0.00
  WS02006245WS02006243    1.00   0.01  0.00  0.00  0.88  0.00  0.00  0.11  0.00  0.00
  WS02006247WS02006245    1.00   0.01  0.00  0.00  0.98  0.00  0.00  0.01  0.00  0.00
  WS02006248WS02006247    1.00   0.01  0.00  0.00  0.98  0.00  0.00  0.01  0.55  0.00
  WS02006249WS02006248    1.00   0.00  0.01  0.00  0.44  0.00  0.55  0.00  0.00  0.00
  WS02006251WS02006249    1.00   0.00  0.00  0.00  1.00  0.00  0.00  0.00  0.53  0.00
  WS02006252WS02006251    1.00   0.01  0.05  0.00  0.20  0.00  0.73  0.00  0.00  0.00
  WS02006253WS02006251    1.00   0.01  0.00  0.00  0.99  0.00  0.00  0.00  0.00  0.00
  WS02006256WS02006235    1.00   0.02  0.00  0.00  0.98  0.00  0.00  0.00  0.00  0.00
  WS02006280WS02006229    1.00   0.14  0.00  0.00  0.16  0.03  0.00  0.67  0.01  0.00
  WS02006284WS02006280    1.00   0.14  0.00  0.00  0.11  0.01  0.00  0.74  0.00  0.00
  WS02006287WS02006284    1.00   0.10  0.06  0.00  0.58  0.26  0.00  0.00  0.66  0.00
  WSF200WS02003060        1.00   0.00  0.06  0.00  0.68  0.26  0.00  0.00  0.59  0.00
  YS02001580YS02001583    1.00   0.23  0.58  0.00  0.19  0.00  0.00  0.00  0.67  0.00
  YS02001583YS02001586    1.00   0.42  0.33  0.00  0.25  0.00  0.00  0.00  0.67  0.00
  YS02001586YS02001590    1.00   0.13  0.00  0.00  0.43  0.04  0.00  0.40  0.36  0.00
  YS02001590YS02001593    1.00   0.13  0.01  0.00  0.11  0.00  0.75  0.00  0.00  0.00
  YS02001593YS02001596    1.00   0.13  0.00  0.00  0.13  0.01  0.00  0.72  0.02  0.00
  YS02001596YS02001600    1.00   0.14  0.00  0.00  0.20  0.01  0.00  0.65  0.04  0.00
  YS02001600YS02001601    1.00   0.13  0.01  0.00  0.86  0.00  0.00  0.00  0.61  0.00
  YS02001601YS02001602    1.00   0.13  0.01  0.00  0.87  0.00  0.00  0.00  0.00  0.00
  YS02001602YS02001605    1.00   0.14  0.00  0.00  0.86  0.00  0.00  0.00  0.00  0.00
  YS02001605YS02001607    1.00   0.14  0.00  0.00  0.86  0.00  0.00  0.00  0.00  0.00
  YS02001607YS02001610    1.00   0.13  0.01  0.00  0.86  0.00  0.00  0.00  0.01  0.00
  YS02001610YS02001613    1.00   0.13  0.00  0.00  0.87  0.00  0.00  0.00  0.00  0.00
  YS02001613YS02001616    1.00   0.13  0.00  0.00  0.87  0.00  0.00  0.00  0.00  0.00
  YS02001616YS02001619    1.00   0.13  0.00  0.00  0.87  0.00  0.00  0.00  0.00  0.00
  YS02001619YS02001622    1.00   0.13  0.00  0.00  0.87  0.00  0.00  0.00  0.29  0.00
  YS02001622YS02001625    1.00   0.13  0.00  0.00  0.87  0.00  0.00  0.00  0.04  0.00
  YS02001625YS02001629    1.00   0.13  0.05  0.00  0.16  0.00  0.66  0.00  0.00  0.00
  YS02001629YS02163301    1.00   0.15  0.01  0.00  0.84  0.00  0.00  0.00  0.00  0.00
  YS02001633YS02163601    1.00   0.00  0.01  0.00  0.99  0.00  0.00  0.00  0.15  0.00
  YS02001641YS02001644    1.00   0.00  0.01  0.00  0.99  0.00  0.00  0.00  0.00  0.00
  YS02001644YS02001647    1.00   0.00  0.17  0.00  0.83  0.00  0.00  0.00  0.00  0.00
  YS02001647YS02001649    1.00   0.00  0.17  0.00  0.59  0.24  0.00  0.00  0.57  0.00
  YS02001649YS02001757    1.00   0.00  0.00  0.00  0.90  0.09  0.00  0.00  0.75  0.00
  YS02001652YS02001649    1.00   0.00  0.00  0.00  0.96  0.04  0.00  0.00  0.73  0.00
  YS02001655YS02001652    1.00   0.00  0.00  0.00  0.20  0.01  0.00  0.79  0.09  0.00
  YS02001658YS02001655    1.00   0.00  0.14  0.00  0.63  0.23  0.00  0.00  0.71  0.00
  YS02001661YS02001658    1.00   0.14  0.00  0.00  0.45  0.41  0.00  0.00  0.72  0.00
  YS02001664YS02001661    1.00   0.13  0.00  0.00  0.74  0.14  0.00  0.00  0.85  0.00
  YS02001745YS02001748    1.00   0.00  0.00  0.00  0.04  0.01  0.00  0.95  0.03  0.00
  YS02001748YS02001751    1.00   0.00  0.00  0.00  0.79  0.21  0.00  0.00  0.82  0.00
  YS02001751YS02001754    1.00   0.00  0.00  0.00  0.19  0.00  0.00  0.80  0.09  0.00
  YS02001754YS02001757    1.00   0.00  0.00  0.00  1.00  0.00  0.00  0.00  0.79  0.00
  YS02001757CaochengTiaoxuchi    1.00   0.00  0.00  0.00  0.31  0.69  0.00  0.00  0.15  0.00
  YS02001759YS02001757    1.00   0.00  0.00  0.00  1.00  0.00  0.00  0.00  0.71  0.00
  YS02001762YS02001759    1.00   0.00  0.00  0.00  1.00  0.00  0.00  0.00  0.04  0.00
  YS02001765YS02001762    1.00   0.00  0.00  0.00  1.00  0.00  0.00  0.00  0.71  0.00
  YS02001767YS02001765    1.00   0.00  0.00  0.00  1.00  0.00  0.00  0.00  0.00  0.00
  YS02001770YS02001767    1.00   0.00  0.00  0.00  1.00  0.00  0.00  0.00  0.00  0.00
  YS02001774YS02001770    1.00   0.00  0.13  0.00  0.70  0.00  0.17  0.00  0.03  0.00
  YS02001779YS02001774    1.00   0.00  0.00  0.00  1.00  0.00  0.00  0.00  0.75  0.00
  YS02001783YS02001784    1.00   0.00  0.18  0.00  0.82  0.00  0.00  0.00  0.55  0.00
  YS02001784YS02001785    1.00   0.00  0.00  0.00  1.00  0.00  0.00  0.00  0.17  0.00
  YS02001786YS02001788    1.00   0.00  0.00  0.00  0.80  0.20  0.00  0.00  0.00  0.00
  YS02001788YS02001790    1.00   0.00  0.00  0.00  0.21  0.79  0.00  0.00  0.81  0.00
  YS02001790YS02001791    1.00   0.00  0.00  0.00  0.01  0.99  0.00  0.00  0.16  0.00
  YS02001791YS02001793    1.00   0.00  0.00  0.00  0.00  1.00  0.00  0.00  0.01  0.00
  YS02001793JiankangQianchi    1.00   0.00  0.00  0.00  0.04  0.96  0.00  0.00  0.07  0.00
  YS02001882YS02001884    1.00   0.15  0.01  0.00  0.84  0.00  0.00  0.00  0.00  0.00
  YS02001884YS02001887    1.00   0.06  0.05  0.00  0.89  0.00  0.00  0.00  0.00  0.00
  YS02001887YS02001890    1.00   0.00  0.00  0.00  0.97  0.00  0.03  0.00  0.00  0.00
  YS02001890YS02001895    1.00   0.00  0.16  0.00  0.84  0.00  0.00  0.00  0.00  0.00
  YS02001895YS02001898    1.00   0.17  0.00  0.00  0.82  0.00  0.02  0.00  0.00  0.00
  YS02001898YS02001901    1.00   0.17  0.00  0.00  0.83  0.00  0.00  0.00  0.01  0.00
  YS02001901YS02001904    1.00   0.17  0.00  0.00  0.83  0.00  0.00  0.00  0.00  0.00
  YS02001904YS02001907    1.00   0.00  0.16  0.00  0.83  0.00  0.00  0.00  0.00  0.00
  YS02001907YS02006553    1.00   0.00  0.02  0.00  0.98  0.00  0.00  0.00  0.00  0.00
  YS02001910YS02001907    1.00   0.00  0.00  0.00  0.97  0.00  0.00  0.03  0.12  0.00
  YS02001915YS02001910    1.00   0.00  0.00  0.00  0.96  0.04  0.00  0.00  0.16  0.00
  YS02001918YS02001915    1.00   0.00  0.00  0.00  0.98  0.02  0.00  0.00  0.76  0.00
  YS02001920YS02001918    1.00   0.00  0.00  0.00  1.00  0.00  0.00  0.00  0.01  0.00
  YS02001923YS02001920    1.00   0.00  0.00  0.00  1.00  0.00  0.00  0.00  0.92  0.00
  YS02001926YS02001923    1.00   0.00  0.07  0.00  0.06  0.00  0.86  0.00  0.00  0.00
  YS02001929YS02001926    1.00   0.00  0.13  0.00  0.87  0.00  0.00  0.00  0.82  0.00
  YS02006553YS02006556    1.00   0.01  0.00  0.00  0.99  0.00  0.00  0.00  0.03  0.00
  YS02006556YS02006558    1.00   0.00  0.00  0.00  1.00  0.00  0.00  0.00  0.00  0.00
  YS02006558YS02006561    1.00   0.18  0.00  0.00  0.06  0.76  0.00  0.00  0.18  0.00
  YS02006561YS02001783    1.00   0.18  0.00  0.00  0.09  0.73  0.00  0.00  0.69  0.00
  YS02163301YS02001633    1.00   0.00  0.15  0.00  0.85  0.00  0.00  0.00  0.00  0.00
  YS02163601YS02164001    1.00   0.00  0.08  0.00  0.92  0.00  0.00  0.00  0.00  0.00
  YS02164001YS02001641    1.00   0.01  0.07  0.00  0.92  0.00  0.00  0.00  0.06  0.00
  YSB1154YSB6556          1.00   0.12  0.00  0.00  0.88  0.00  0.00  0.00  0.02  0.00
  YSB1171HS02004479       1.00   0.04  0.00  0.00  0.95  0.00  0.00  0.01  0.10  0.00
  YSB1174YSB1171          1.00   0.05  0.04  0.00  0.91  0.00  0.00  0.00  0.00  0.00
  YSB6556YSB1171          1.00   0.04  0.08  0.00  0.88  0.00  0.00  0.00  0.00  0.00
  
  
  *************************
  Conduit Surcharge Summary
  *************************
  
  ----------------------------------------------------------------------------
                                                           Hours        Hours 
                         --------- Hours Full --------   Above Full   Capacity
  Conduit                Both Ends  Upstream  Dnstream   Normal Flow   Limited
  ----------------------------------------------------------------------------
  HS02004478WS02006287        0.49      0.49      0.66      0.01         0.01
  HS02004479HS02004480        0.67      0.67      0.69      0.01         0.01
  HS02004480HS02004478        0.60      0.66      0.60      1.66         0.60
  HS02004770HS02004777        0.57      0.57      0.58      0.09         0.06
  HS02004777HS02004785        0.53      0.53      0.58      0.01         0.01
  HS02004785HS02004788        0.51      0.53      0.51      1.44         0.46
  HS02004788HS02004792        0.51      0.51      0.63      0.01         0.01
  HS02004792HS02004799        0.63      0.63      0.75      0.01         0.01
  HS02004799HS02004480        0.66      0.66      0.75      0.85         0.01
  HS02004802HS02004478        0.61      0.61      0.68      0.14         0.01
  HS02004807HS02004802        0.65      0.65      0.67      0.28         0.28
  HS02004817HS02004807        0.65      0.65      1.24      0.01         0.01
  HS02004817HS02004824        0.51      0.51      1.24      0.01         0.01
  HS02004824HS02004830        0.49      0.49      0.51      0.01         0.01
  HS02004830HS02004837        0.45      0.45      0.49      0.01         0.01
  HS02004837HS02004842        0.45      0.45      0.58      0.01         0.01
  HS02004842HS02004848        0.41      0.41      0.58      0.01         0.01
  HS02004848HS02004852        0.41      0.41      0.44      0.02         0.01
  HS02004852HS02004856        0.43      0.44      0.46      0.02         0.01
  HS02004856HS02004862        0.41      0.41      0.45      0.01         0.01
  HS02004862HS02004870        0.45      0.45      0.47      0.24         0.22
  HS02004870HS02004876        0.47      0.47      0.52      0.01         0.01
  HS02004876HS02004881        0.50      0.52      0.50      1.46         0.50
  HS02004881HS02006253        0.50      0.50      1.57      0.01         0.01
  HS02004901HS02004770        0.57      0.57      0.58      0.01         0.01
  WS02003072WS02003073        0.01      0.01      0.01      2.81         0.01
  WS02004401WS02004402        1.62      1.62      1.64      1.48         1.46
  WS02004402WS02004403        1.64      1.64      1.64      1.63         1.61
  WS02004403WS02004404        1.64      1.64      1.72      0.01         0.03
  WS02004404WS02004405        1.70      1.72      1.70      3.32         1.70
  WS02004405WS02004406        1.69      1.70      1.69      1.83         1.69
  WS02004406WS02004407        0.01      0.01      1.69      0.01         0.01
  WS02004407WS02004409        0.01      0.01      1.02      0.01         0.01
  WS02004409WS02004410        0.99      1.02      0.99      1.55         0.99
  WS02004410WS02004411        0.91      0.99      0.91      1.59         0.91
  WS02004411WS02004412        0.79      0.91      0.79      1.62         0.79
  WS02004412WS02004413        0.79      0.79      1.33      0.01         0.01
  WS02004413WS02003067        0.01      0.01      1.33      0.01         0.01
  WS02006109WS02006110        1.83      1.84      2.07      1.84         0.01
  WS02006110WS02006113        1.33      1.33      2.06      0.30         0.01
  WS02006111WS02006112        1.31      1.32      2.51      0.01         0.01
  WS02006112WS02006115        1.55      1.55      1.86      0.01         0.01
  WS02006113WS02006111        1.33      1.33      1.33      1.45         1.32
  WS02006115WS02006116        1.56      1.56      1.56      1.56         1.52
  WS02006116WS02004401        1.62      1.62      1.62      1.61         1.58
  WS02006228WS02006109        2.03      2.07      2.03      2.88         2.03
  WS02006229WS02006228        2.02      2.04      2.02      2.29         2.02
  WS02006230WS02006229        2.11      2.16      2.11      3.98         1.04
  WS02006231WS02006230        1.71      1.71      1.77      3.17         1.01
  WS02006232WS02006231        1.76      1.76      1.87      0.01         0.14
  WS02006234WS02006232        1.79      1.79      1.87      0.01         0.01
  WS02006235WS02006234        1.78      1.79      1.79      2.96         0.97
  WS02006238WS02006235        1.80      1.80      1.83      0.01         0.36
  WS02006239WS02006238        1.82      1.82      1.82      0.86         0.03
  WS02006240WS02006239        1.79      1.79      1.79      0.85         0.01
  WS02006242WS02006240        1.79      1.79      1.83      1.33         0.94
  WS02006243WS02006242        1.77      1.77      1.81      0.01         0.01
  WS02006245WS02006243        1.74      1.74      1.76      0.02         0.01
  WS02006247WS02006245        1.73      1.75      1.73      2.67         0.44
  WS02006248WS02006247        1.70      1.70      1.74      0.01         0.01
  WS02006249WS02006248        1.69      1.69      1.70      1.52         0.01
  WS02006251WS02006249        1.69      1.70      1.70      1.30         1.24
  WS02006252WS02006251        1.62      1.63      1.67      0.16         0.07
  WS02006253WS02006251        1.69      1.69      1.72      0.79         0.02
  WS02006256WS02006235        3.17      3.18      7.43      0.71         0.01
  WS02006280WS02006229        0.80      0.80      0.95      0.01         0.01
  WS02006284WS02006280        0.69      0.69      0.78      0.01         0.01
  WS02006287WS02006284        0.60      0.60      0.70      0.31         0.31
  YS02001580YS02001583        0.62      0.62      0.64      0.01         0.01
  YS02001583YS02001586        0.63      0.63      0.72      0.01         0.01
  YS02001586YS02001590        0.72      0.72      0.79      0.01         0.01
  YS02001590YS02001593        0.79      0.79      0.81      0.86         0.01
  YS02001593YS02001596        0.80      0.80      0.90      0.01         0.01
  YS02001596YS02001600        0.95      0.95      1.06      0.01         0.01
  YS02001600YS02001601        1.13      1.13      1.43      0.01         0.01
  YS02001601YS02001602        1.33      1.33      1.47      1.09         0.01
  YS02001602YS02001605        1.28      1.28      1.33      2.25         0.01
  YS02001605YS02001607        1.22      1.28      1.22      1.40         1.22
  YS02001607YS02001610        0.73      0.73      0.75      0.01         0.01
  YS02001610YS02001613        0.71      0.71      0.75      0.01         0.01
  YS02001613YS02001616        0.67      0.67      0.71      0.01         0.01
  YS02001616YS02001619        0.65      0.65      0.67      0.01         0.03
  YS02001619YS02001622        0.65      0.65      0.65      0.83         0.63
  YS02001622YS02001625        0.65      0.65      0.85      0.01         0.01
  YS02001625YS02001629        0.56      0.56      0.85      0.01         0.01
  YS02001629YS02163301        0.83      0.83      0.84      0.37         0.37
  YS02001633YS02163601        0.86      0.86      0.89      0.49         0.50
  YS02001641YS02001644        0.68      0.74      0.68      1.50         0.67
  YS02001644YS02001647        0.43      0.43      0.68      0.04         0.01
  YS02001647YS02001649        0.43      0.43      0.49      0.01         0.01
  YS02001649YS02001757        0.48      0.49      0.48      0.39         0.33
  YS02001652YS02001649        0.35      0.35      0.49      0.01         0.01
  YS02001655YS02001652        0.25      0.25      0.33      0.01         0.01
  YS02001658YS02001655        0.18      0.18      0.25      0.01         0.01
  YS02001661YS02001658        0.04      0.04      0.18      0.01         0.01
  YS02001664YS02001661        0.01      0.01      0.09      0.01         0.01
  YS02001745YS02001748        0.01      0.01      0.11      0.01         0.01
  YS02001748YS02001751        0.15      0.15      0.19      0.01         0.01
  YS02001751YS02001754        0.19      0.19      0.25      0.01         0.01
  YS02001754YS02001757        0.27      0.27      0.48      0.01         0.01
  YS02001757CaochengTiaoxuchi        0.08      0.48      1.18      0.48         0.05
  YS02001759YS02001757        0.40      0.40      0.48      0.01         0.03
  YS02001762YS02001759        0.37      0.37      0.40      0.01         0.02
  YS02001765YS02001762        0.35      0.35      0.37      0.01         0.01
  YS02001767YS02001765        0.33      0.33      0.35      0.01         0.05
  YS02001770YS02001767        0.33      0.34      0.33      0.57         0.33
  YS02001774YS02001770        0.32      0.32      0.37      0.01         0.01
  YS02001779YS02001774        0.27      0.27      0.37      0.01         0.01
  YS02001783YS02001784        0.52      0.54      0.52      0.69         0.52
  YS02001784YS02001785        0.42      0.52      0.42      0.92         0.42
  YS02001786YS02001788        0.01      0.42      0.01      0.79         0.01
  YS02001790YS02001791        0.01      0.01      0.01      0.51         0.01
  YS02001793JiankangQianchi        0.01      0.01      0.18      0.01         0.01
  YS02001882YS02001884        0.49      0.49      0.50      0.01         0.01
  YS02001884YS02001887        0.52      0.52      0.53      0.01         0.01
  YS02001887YS02001890        0.55      0.55      0.56      0.13         0.01
  YS02001890YS02001895        0.48      0.48      0.58      0.01         0.01
  YS02001895YS02001898        0.47      0.47      0.48      0.01         0.01
  YS02001898YS02001901        0.48      0.48      0.52      0.01         0.01
  YS02001901YS02001904        0.51      0.51      0.52      0.01         0.01
  YS02001904YS02001907        0.51      0.51      0.77      0.01         0.01
  YS02001907YS02006553        0.93      0.93      1.00      0.01         0.01
  YS02001910YS02001907        0.57      0.57      0.76      0.01         0.01
  YS02001915YS02001910        0.49      0.49      0.57      0.01         0.01
  YS02001918YS02001915        0.41      0.41      0.49      0.01         0.01
  YS02001920YS02001918        0.41      0.41      0.42      0.01         0.01
  YS02001923YS02001920        0.36      0.36      0.42      0.01         0.01
  YS02001926YS02001923        0.12      0.12      0.15      0.01         0.01
  YS02001929YS02001926        0.01      0.01      0.15      0.01         0.01
  YS02006553YS02006556        0.66      0.66      0.77      0.01         0.01
  YS02006556YS02006558        0.72      0.72      0.79      0.01         0.01
  YS02006558YS02006561        0.44      0.65      0.44      0.88         0.44
  YS02006561YS02001783        0.38      0.38      0.54      0.01         0.01
  YS02163301YS02001633        0.84      0.84      0.88      0.01         0.01
  YS02163601YS02164001        0.76      0.76      0.89      0.30         0.01
  YS02164001YS02001641        0.74      0.76      0.74      0.75         0.56
  YSB1154YSB6556              0.72      0.72      0.87      0.01         0.01
  YSB1171HS02004479           0.62      0.62      0.88      0.01         0.01
  YSB1174YSB1171              0.79      0.79      1.14      0.01         0.01
  YSB6556YSB1171              0.72      0.72      1.32      0.01         0.01
  
  
  ***************
  Pumping Summary
  ***************
  
  ---------------------------------------------------------------------------------------------------------
                                                  Min       Avg       Max     Total     Power    % Time Off
                        Percent   Number of      Flow      Flow      Flow    Volume     Usage    Pump Curve
  Pump                 Utilized   Start-Ups       LPS       LPS       LPS  10^6 ltr     Kw-hr    Low   High
  ---------------------------------------------------------------------------------------------------------
  CC-R1                   44.79          12      0.00    609.25    683.00     6.310    106.71    0.0   74.0
  CC-R2                   81.25          10      0.00    358.64    683.00     4.978     82.50    0.0   92.1
  CC-S1                   25.00           5      0.00    200.00    200.00     1.440     10.47    0.0   28.2
  CC-S2                   59.37          13      0.00     95.99    200.00     0.929      6.76    0.0   83.6
  JK-R1                   81.25          10      0.00    135.23   1000.00     2.537      7.80    0.0    0.0
  JK-R2                   41.67           9      0.00    227.52   1000.00     2.384      5.39    0.0    0.0
  JK-S                    38.54          12      0.00    118.68    300.00     1.183     26.61    0.0    0.0
  XR-1                    97.91           1      0.00     95.00     95.00     2.679      9.64    0.0    0.0
  XR-2                    93.95           1      0.00     95.00     95.00     2.570      8.80    0.0    0.0
  XR-3                     0.00           0      0.00      0.00      0.00     0.000      0.00    0.0    0.0
  XR-4                     0.00           0      0.00      0.00      0.00     0.000      0.00    0.0    0.0
  

  Analysis begun on:  Thu Jun 15 06:46:21 2023
  Analysis ended on:  Thu Jun 15 06:46:25 2023
  Total elapsed time: 00:00:04