
  OWA STORM WATER MANAGEMENT MODEL - VERSION v5.2.3 (OWA 2023-03-28)
  ------------------------------------------------------------

  WARNING 04: minimum elevation drop used for Conduit WS02004404WS02004405
  WARNING 03: negative offset ignored for Link YS02001904YS02001907
  
  ****************
  Analysis Options
  ****************
  Flow Units ............... LPS
  Process Models:
    Rainfall/Runoff ........ YES
    RDII ................... NO
    Snowmelt ............... NO
    Groundwater ............ NO
    Flow Routing ........... YES
    Ponding Allowed ........ NO
    Water Quality .......... NO
  Infiltration Method ...... HORTON
  Flow Routing Method ...... DYNWAVE
  Surcharge Method ......... EXTRAN
  Starting Date ............ 08/28/2015 08:00:00
  Ending Date .............. 08/28/2015 16:00:00
  Antecedent Dry Days ...... 8.0
  Report Time Step ......... 00:01:00
  Wet Time Step ............ 00:01:00
  Dry Time Step ............ 00:01:00
  Routing Time Step ........ 30.00 sec
  Variable Time Step ....... YES
  Maximum Trials ........... 8
  Number of Threads ........ 1
  Head Tolerance ........... 0.001500 m
  
  
  **************************        Volume         Depth
  Runoff Quantity Continuity     hectare-m            mm
  **************************     ---------       -------
  Total Precipitation ......         3.160        52.165
  Evaporation Loss .........         0.000         0.000
  Infiltration Loss ........         0.240         3.970
  Surface Runoff ...........         2.859        47.198
  Final Storage ............         0.061         1.007
  Continuity Error (%) .....        -0.020
  
  
  **************************        Volume        Volume
  Flow Routing Continuity        hectare-m      10^6 ltr
  **************************     ---------     ---------
  Dry Weather Inflow .......         0.630         6.296
  Wet Weather Inflow .......         2.860        28.599
  Groundwater Inflow .......         0.000         0.000
  RDII Inflow ..............         0.000         0.000
  External Inflow ..........         0.105         1.045
  External Outflow .........         2.915        29.152
  Flooding Loss ............         1.108        11.079
  Evaporation Loss .........         0.000         0.000
  Exfiltration Loss ........         0.000         0.000
  Initial Stored Volume ....         0.303         3.031
  Final Stored Volume ......         0.173         1.732
  Continuity Error (%) .....        -7.678
  
  
  *************************
  Highest Continuity Errors
  *************************
  Node JK-storage (-59.67%)
  Node YS02001884 (5.12%)
  Node CC-storage (-5.09%)
  Node YS02001583 (-4.54%)
  Node HS02004842 (1.82%)
  
  
  ***************************
  Time-Step Critical Elements
  ***************************
  Link WS02006252WS02006251 (72.09%)
  Link YS02001793JiankangQianchi (9.61%)
  Link WS02006280WS02006229 (7.42%)
  Link WS02006238WS02006235 (2.94%)
  Link YS02001791YS02001793 (1.78%)
  
  
  ********************************
  Highest Flow Instability Indexes
  ********************************
  Link WS02006113WS02006111 (24)
  Link WS02006111WS02006112 (15)
  Link WS02006238WS02006235 (13)
  Link WS02004404WS02004405 (12)
  Link WS02006252WS02006251 (11)
  
  
  *********************************
  Most Frequent Nonconverging Nodes
  *********************************
  Node CC-1 (7.04%)
  Node CC-2 (7.04%)
  Node JK-1 (7.04%)
  Node JK-2 (7.04%)
  Node WSC (7.04%)
  
  
  *************************
  Routing Time Step Summary
  *************************
  Minimum Time Step           :     0.00 sec
  Average Time Step           :     1.52 sec
  Maximum Time Step           :    30.00 sec
  % of Time in Steady State   :     0.00
  Average Iterations per Step :     2.77
  % of Steps Not Converging   :     7.04
  Time Step Frequencies       :
     30.000 - 13.228 sec      :     0.01 %
     13.228 -  5.833 sec      :     0.12 %
      5.833 -  2.572 sec      :    14.63 %
      2.572 -  1.134 sec      :    41.42 %
      1.134 -  0.500 sec      :    43.83 %
  
  
  ***************************
  Subcatchment Runoff Summary
  ***************************
  
  ------------------------------------------------------------------------------------------------------------------------------
                            Total      Total      Total      Total     Imperv       Perv      Total       Total     Peak  Runoff
                           Precip      Runon       Evap      Infil     Runoff     Runoff     Runoff      Runoff   Runoff   Coeff
  Subcatchment                 mm         mm         mm         mm         mm         mm         mm    10^6 ltr      LPS
  ------------------------------------------------------------------------------------------------------------------------------
  sub0                      52.17       0.00       0.00       0.98      47.26       2.67      49.93        0.04    30.10   0.957
  sub1                      52.17       0.00       0.00       1.69      45.18       4.05      49.23        0.33   206.59   0.944
  sub10                     52.17       0.00       0.00       1.19      46.71       2.99      49.69        0.55   352.06   0.953
  sub11                     52.17       0.00       0.00       1.17      46.73       3.01      49.73        0.58   390.35   0.953
  sub12                     52.17       0.00       0.00       1.90      44.21       4.88      49.09        0.43   312.03   0.941
  sub14                     52.17       0.00       0.00       1.33      46.21       3.36      49.57        0.47   311.63   0.950
  sub15                     52.17       0.00       0.00       5.30      35.54      10.35      45.90        0.79   485.96   0.880
  sub16                     52.17       0.00       0.00       5.46      34.04      11.76      45.80        0.48   327.11   0.878
  sub17                     52.17       0.00       0.00       5.33      34.55      11.37      45.92        0.39   265.65   0.880
  sub2                      52.17       0.00       0.00       7.56      31.96      11.75      43.70        0.41   214.85   0.838
  sub22                     52.17       0.00       0.00       8.04      28.95      14.40      43.35        2.74  1634.70   0.831
  sub23                     52.17       0.00       0.00       6.55      32.00      12.75      44.76        2.13  1349.75   0.858
  sub3                      52.17       0.00       0.00       8.17      31.92      11.13      43.05        0.97   464.00   0.825
  sub4                      52.17       0.00       0.00       1.90      45.01       3.84      48.84        1.02   510.01   0.936
  sub5                      52.17       0.00       0.00       1.04      47.21       2.62      49.82        0.56   355.91   0.955
  sub60                     52.17       0.00       0.00       1.79      44.70       4.47      49.17        0.65   442.77   0.943
  sub61                     52.17       0.00       0.00       2.61      42.16       6.26      48.43        0.89   615.34   0.928
  sub62                     52.17       0.00       0.00       1.19      46.70       2.98      49.68        1.36   862.84   0.952
  sub63                     52.17       0.00       0.00       4.85      36.07      10.28      46.35        1.05   695.79   0.888
  sub64                     52.17       0.00       0.00       2.45      43.13       5.38      48.51        1.17   702.99   0.930
  sub65                     52.17       0.00       0.00       2.12      44.13       4.67      48.79        1.34   785.54   0.935
  sub66                     52.17       0.00       0.00       6.01      35.96       9.12      45.08        2.10  1041.00   0.864
  sub67                     52.17       0.00       0.00       1.14      46.74       3.03      49.78        0.93   663.25   0.954
  sub68                     52.17       0.00       0.00       2.16      43.67       5.14      48.82        1.34   886.78   0.936
  sub69                     52.17       0.00       0.00       1.94      44.23       5.88      50.11        1.86  1044.78   0.961
  sub7                      52.17       0.00       0.00       1.31      46.23       3.38      49.61        0.17   115.45   0.951
  sub70                     52.17       0.00       0.00       6.45      34.26      11.28      45.54        1.32   584.06   0.873
  sub71                     52.17       0.00       0.00       1.23      46.66       2.94      49.61        1.30   758.50   0.951
  sub72                     52.17       0.00       0.00       1.10      47.11       2.56      49.66        0.68   370.10   0.952
  sub8                      52.17       0.00       0.00       1.33      46.22       3.37      49.58        0.32   211.95   0.951
  sub9                      52.17       0.00       0.00       1.33      46.21       3.36      49.58        0.24   158.40   0.950
  
  
  ******************
  Node Depth Summary
  ******************
  
  ---------------------------------------------------------------------------------
                                 Average  Maximum  Maximum  Time of Max    Reported
                                   Depth    Depth      HGL   Occurrence   Max Depth
  Node                 Type       Meters   Meters   Meters  days hr:min      Meters
  ---------------------------------------------------------------------------------
  HS02004478           JUNCTION     0.18     1.58    10.80     0  02:24        1.58
  HS02004479           JUNCTION     0.25     1.69    10.90     0  02:20        1.66
  HS02004480           JUNCTION     0.22     1.67    10.91     0  02:20        1.63
  HS02004770           JUNCTION     0.23     1.42    11.25     0  02:17        1.42
  HS02004777           JUNCTION     0.25     1.48    11.28     0  02:17        1.45
  HS02004785           JUNCTION     0.15     1.48    11.38     0  02:17        1.34
  HS02004788           JUNCTION     0.12     1.42    11.32     0  02:17        1.34
  HS02004792           JUNCTION     0.16     1.60    11.12     0  02:17        1.60
  HS02004799           JUNCTION     0.27     1.76    10.97     0  02:20        1.76
  HS02004802           JUNCTION     0.28     1.78    10.91     0  02:25        1.78
  HS02004807           JUNCTION     0.25     1.92    11.09     0  02:20        1.89
  HS02004817           JUNCTION     0.54     2.43    11.28     0  02:20        2.29
  HS02004824           JUNCTION     0.13     2.01    11.41     0  02:20        1.80
  HS02004830           JUNCTION     0.13     2.03    11.50     0  02:20        1.75
  HS02004837           JUNCTION     0.11     1.96    11.54     0  02:20        1.65
  HS02004842           JUNCTION     0.40     2.22    11.49     0  02:20        1.97
  HS02004848           JUNCTION     0.09     2.07    11.67     0  02:20        1.64
  HS02004852           JUNCTION     0.09     2.12    11.63     0  02:20        1.69
  HS02004856           JUNCTION     0.15     2.07    11.50     0  02:20        1.73
  HS02004862           JUNCTION     0.10     2.00    11.38     0  02:20        2.00
  HS02004870           JUNCTION     0.10     2.00    11.28     0  02:19        1.71
  HS02004876           JUNCTION     0.14     1.94    10.97     0  02:20        1.80
  HS02004881           JUNCTION     0.08     2.15    11.18     0  02:19        1.60
  HS02004901           JUNCTION     0.23     1.42    11.24     0  02:17        1.42
  WS02001211           JUNCTION     0.62     0.81     5.65     0  02:28        0.81
  WS02001212           JUNCTION     0.36     0.57     5.63     0  02:28        0.57
  WS02001213           JUNCTION     0.58     0.87     5.63     0  02:27        0.87
  WS02003059           JUNCTION     0.64     0.93     5.62     0  02:26        0.93
  WS02003060           JUNCTION     0.36     0.68     5.61     0  02:26        0.68
  WS02003066           JUNCTION     0.22     0.45     6.01     0  02:25        0.45
  WS02003067           JUNCTION     0.53     0.89     6.21     0  02:25        0.89
  WS02003069           JUNCTION     0.41     0.77     5.36     0  02:27        0.77
  WS02003072           JUNCTION     0.47     0.81     5.18     0  02:27        0.81
  WS02003073           JUNCTION     0.28     0.51     4.58     0  02:28        0.51
  WS02004138           JUNCTION     0.13     0.14     7.39     0  00:32        0.14
  WS02004139           JUNCTION     0.56     0.74     5.65     0  02:28        0.74
  WS02004401           JUNCTION     0.73     1.83     7.83     0  02:24        1.83
  WS02004402           JUNCTION     0.75     1.78     7.74     0  02:24        1.77
  WS02004403           JUNCTION     0.76     1.70     7.63     0  02:24        1.69
  WS02004404           JUNCTION     0.83     1.72     7.57     0  02:24        1.70
  WS02004405           JUNCTION     0.82     1.67     7.52     0  02:24        1.66
  WS02004406           JUNCTION     0.82     1.56     7.39     0  02:25        1.55
  WS02004407           JUNCTION     0.24     0.91     7.22     0  02:25        0.91
  WS02004409           JUNCTION     0.49     1.38     7.15     0  02:25        1.36
  WS02004410           JUNCTION     0.51     1.29     7.01     0  02:25        1.28
  WS02004411           JUNCTION     0.51     1.19     6.87     0  02:25        1.19
  WS02004412           JUNCTION     0.52     1.10     6.74     0  02:25        1.10
  WS02004413           JUNCTION     0.66     1.14     6.61     0  02:25        1.14
  WS02006109           JUNCTION     0.89     2.64     9.26     0  02:17        2.64
  WS02006110           JUNCTION     0.84     2.38     8.97     0  02:24        2.38
  WS02006111           JUNCTION     0.36     1.72     8.42     0  02:24        1.71
  WS02006112           JUNCTION     0.92     2.68     8.56     0  00:00        2.33
  WS02006113           JUNCTION     0.43     1.81     8.70     0  02:24        1.79
  WS02006115           JUNCTION     0.63     1.93     8.07     0  02:24        1.92
  WS02006116           JUNCTION     0.71     1.93     7.97     0  02:24        1.90
  WS02006228           JUNCTION     0.92     3.03     9.68     0  02:20        3.02
  WS02006229           JUNCTION     0.91     3.22     9.91     0  02:20        3.21
  WS02006230           JUNCTION     0.85     2.65     9.39     0  02:13        2.65
  WS02006231           JUNCTION     0.59     2.24     9.36     0  02:40        2.24
  WS02006232           JUNCTION     0.69     2.18     9.22     0  02:13        2.18
  WS02006234           JUNCTION     0.58     1.96     9.12     0  02:10        1.96
  WS02006235           JUNCTION     0.59     1.97     9.14     0  02:25        1.93
  WS02006238           JUNCTION     0.61     1.99     9.13     0  02:25        1.93
  WS02006239           JUNCTION     0.56     1.94     9.15     0  02:40        1.94
  WS02006240           JUNCTION     0.51     1.76     9.06     0  02:40        1.76
  WS02006242           JUNCTION     0.56     1.55     8.82     0  01:50        1.55
  WS02006243           JUNCTION     0.45     1.48     8.90     0  01:50        1.40
  WS02006245           JUNCTION     0.44     1.56     9.05     0  01:51        1.30
  WS02006247           JUNCTION     0.46     1.47     8.97     0  01:50        1.25
  WS02006248           JUNCTION     0.40     1.10     8.69     0  01:50        1.10
  WS02006249           JUNCTION     0.43     1.09     8.69     0  01:50        1.09
  WS02006251           JUNCTION     0.48     2.21     9.88     0  02:19        2.10
  WS02006252           JUNCTION     0.35     1.50     9.74     0  02:19        1.50
  WS02006253           JUNCTION     0.54     3.49    11.13     0  02:19        2.88
  WS02006256           JUNCTION     0.90     2.35     9.28     0  00:11        2.35
  WS02006280           JUNCTION     0.24     1.74    10.01     0  02:20        1.73
  WS02006284           JUNCTION     0.50     1.94    10.34     0  02:20        1.93
  WS02006287           JUNCTION     0.24     1.73    10.68     0  02:24        1.73
  WSF200               JUNCTION     0.21     0.52     5.75     0  02:25        0.52
  YS02001580           JUNCTION     0.06     1.05     9.59     0  02:15        0.77
  YS02001583           JUNCTION     0.09     1.14     9.64     0  02:15        0.82
  YS02001586           JUNCTION     0.15     1.13     9.30     0  02:15        1.13
  YS02001590           JUNCTION     0.24     1.40     9.26     0  02:15        1.37
  YS02001593           JUNCTION     0.17     1.33     9.20     0  02:15        1.30
  YS02001596           JUNCTION     0.23     1.71     9.13     0  02:40        1.71
  YS02001600           JUNCTION     0.28     1.87     9.00     0  02:15        1.87
  YS02001601           JUNCTION     0.48     2.06     8.90     0  02:15        2.06
  YS02001602           JUNCTION     0.39     1.87     8.77     0  02:15        1.87
  YS02001605           JUNCTION     0.37     1.78     8.68     0  02:29        1.77
  YS02001607           JUNCTION     0.37     1.65     8.49     0  02:36        1.64
  YS02001610           JUNCTION     0.41     1.68     8.48     0  02:15        1.68
  YS02001613           JUNCTION     0.37     1.65     8.49     0  02:24        1.65
  YS02001616           JUNCTION     0.30     1.59     8.50     0  02:23        1.59
  YS02001619           JUNCTION     0.28     1.59     8.51     0  02:23        1.59
  YS02001622           JUNCTION     0.26     1.56     8.46     0  02:23        1.56
  YS02001625           JUNCTION     0.52     1.78     8.38     0  02:19        1.78
  YS02001629           JUNCTION     0.37     1.85     8.40     0  02:21        1.85
  YS02001633           JUNCTION     0.45     2.02     8.47     0  02:23        2.02
  YS02001641           JUNCTION     0.43     1.95     8.39     0  02:22        1.94
  YS02001644           JUNCTION     0.43     1.92     8.35     0  02:22        1.92
  YS02001647           JUNCTION     0.21     1.78     8.39     0  02:24        1.70
  YS02001649           JUNCTION     0.24     2.02     8.41     0  02:24        1.88
  YS02001652           JUNCTION     0.13     1.91     8.51     0  02:24        1.71
  YS02001655           JUNCTION     0.09     1.84     8.69     0  02:22        1.48
  YS02001658           JUNCTION     0.07     1.98     9.12     0  02:22        1.22
  YS02001661           JUNCTION     0.12     1.39     8.79     0  02:24        0.99
  YS02001664           JUNCTION     0.05     0.53     8.46     0  02:23        0.53
  YS02001745           JUNCTION     0.05     0.71     8.22     0  02:23        0.70
  YS02001748           JUNCTION     0.06     1.77     8.84     0  02:23        1.16
  YS02001751           JUNCTION     0.07     1.69     8.56     0  02:23        1.34
  YS02001754           JUNCTION     0.10     1.80     8.41     0  02:23        1.58
  YS02001757           JUNCTION     0.24     2.00     8.26     0  02:23        1.90
  YS02001759           JUNCTION     0.18     1.98     8.35     0  02:23        1.89
  YS02001762           JUNCTION     0.17     1.98     8.38     0  02:23        1.87
  YS02001765           JUNCTION     0.16     1.94     8.39     0  02:23        1.85
  YS02001767           JUNCTION     0.16     1.93     8.42     0  02:23        1.84
  YS02001770           JUNCTION     0.18     1.95     8.44     0  02:23        1.89
  YS02001774           JUNCTION     0.24     1.99     8.42     0  02:23        1.96
  YS02001779           JUNCTION     0.08     1.68     8.37     0  02:21        1.68
  YS02001783           JUNCTION     0.20     1.34     7.48     0  02:20        1.22
  YS02001784           JUNCTION     0.22     1.18     7.24     0  02:20        1.11
  YS02001786           JUNCTION     0.19     0.92     6.95     0  02:20        0.87
  YS02001788           JUNCTION     0.13     0.62     6.60     0  02:24        0.62
  YS02001790           JUNCTION     0.16     0.72     6.37     0  02:28        0.72
  YS02001791           JUNCTION     0.10     0.44     5.91     0  02:29        0.43
  YS02001793           JUNCTION     0.06     0.25     5.09     0  02:24        0.24
  YS02001882           JUNCTION     0.25     1.65     8.37     0  02:20        1.63
  YS02001884           JUNCTION     0.34     1.75     8.36     0  02:20        1.73
  YS02001887           JUNCTION     0.42     1.81     8.35     0  02:24        1.81
  YS02001890           JUNCTION     0.45     1.81     8.32     0  02:20        1.81
  YS02001895           JUNCTION     0.22     1.57     8.31     0  02:27        1.57
  YS02001898           JUNCTION     0.23     1.57     8.30     0  02:20        1.56
  YS02001901           JUNCTION     0.34     1.68     8.29     0  02:20        1.68
  YS02001904           JUNCTION     0.32     1.64     8.27     0  02:29        1.63
  YS02001907           JUNCTION     0.63     1.96     8.25     0  02:20        1.96
  YS02001910           JUNCTION     0.43     2.00     8.50     0  02:20        1.89
  YS02001915           JUNCTION     0.25     1.94     8.66     0  02:20        1.77
  YS02001918           JUNCTION     0.13     1.81     8.88     0  02:20        1.55
  YS02001920           JUNCTION     0.21     2.14     9.15     0  02:21        1.66
  YS02001923           JUNCTION     0.09     2.03     9.29     0  02:21        1.43
  YS02001926           JUNCTION     0.13     1.90     9.35     0  02:20        1.19
  YS02001929           JUNCTION     0.07     1.78     9.47     0  02:21        0.89
  YS02006553           JUNCTION     0.63     2.00     8.28     0  02:20        1.97
  YS02006556           JUNCTION     0.61     1.99     8.31     0  02:20        1.95
  YS02006558           JUNCTION     0.65     2.04     8.31     0  02:20        1.99
  YS02006561           JUNCTION     0.12     1.05     7.71     0  02:20        0.89
  YS02163301           JUNCTION     0.39     1.92     8.43     0  02:21        1.91
  YS02163601           JUNCTION     0.49     2.03     8.43     0  02:23        2.03
  YS02164001           JUNCTION     0.42     1.95     8.40     0  02:23        1.94
  YSB1154              JUNCTION     0.38     1.94    11.00     0  02:17        1.89
  YSB1171              JUNCTION     0.52     1.95    10.85     0  02:17        1.95
  YSB1174              JUNCTION     0.34     1.80    10.91     0  02:23        1.80
  YSB6556              JUNCTION     0.28     1.79    10.96     0  02:17        1.73
  CC-1                 OUTFALL      0.00     0.00     0.00     0  00:00        0.00
  CC-2                 OUTFALL      0.00     0.00     0.00     0  00:00        0.00
  JK-1                 OUTFALL      0.00     0.00     0.00     0  00:00        0.00
  JK-2                 OUTFALL      0.00     0.00     0.00     0  00:00        0.00
  WSC                  OUTFALL      0.28     0.51     1.18     0  02:28        0.51
  CC-storage           STORAGE      0.29     1.15     6.65     0  03:03        1.15
  JK-storage           STORAGE      0.08     3.00     3.80     0  00:05        3.00
  XR-storage           STORAGE      7.88     9.26     7.26     0  08:00        9.26
  
  
  *******************
  Node Inflow Summary
  *******************
  
  -------------------------------------------------------------------------------------------------
                                  Maximum  Maximum                  Lateral       Total        Flow
                                  Lateral    Total  Time of Max      Inflow      Inflow     Balance
                                   Inflow   Inflow   Occurrence      Volume      Volume       Error
  Node                 Type           LPS      LPS  days hr:min    10^6 ltr    10^6 ltr     Percent
  -------------------------------------------------------------------------------------------------
  HS02004478           JUNCTION      0.00  2295.04     0  02:25           0        7.67      -0.009
  HS02004479           JUNCTION      0.00   402.61     0  02:20           0       0.749       0.085
  HS02004480           JUNCTION      0.00  2072.65     0  02:19           0        5.78       0.039
  HS02004770           JUNCTION   1349.75  1349.75     0  02:25        2.14        2.37       0.115
  HS02004777           JUNCTION      0.03   718.35     0  02:16    0.000864        1.73       0.287
  HS02004785           JUNCTION      0.15   731.27     0  02:16     0.00432        1.73       0.021
  HS02004788           JUNCTION    487.63   901.26     0  02:17       0.838        2.57      -0.001
  HS02004792           JUNCTION   1634.98  2413.06     0  02:25        2.75        5.32      -0.006
  HS02004799           JUNCTION    311.63  1727.24     0  02:18       0.472        5.11       0.052
  HS02004802           JUNCTION      0.00  1126.68     0  02:25           0        1.95       0.195
  HS02004807           JUNCTION    390.35  1126.25     0  02:25       0.578        1.99       0.193
  HS02004817           JUNCTION      0.60   747.83     0  02:26      0.0173        1.48       1.146
  HS02004824           JUNCTION    510.06   746.94     0  02:26        1.02        1.65       0.030
  HS02004830           JUNCTION      0.15   591.52     0  02:17     0.00432       0.811       0.154
  HS02004837           JUNCTION    358.41   783.44     0  02:20       0.731        1.12       0.053
  HS02004842           JUNCTION      0.00   787.05     0  02:18           0       0.712       1.850
  HS02004848           JUNCTION    464.00  1048.99     0  02:20       0.969        1.52      -0.020
  HS02004852           JUNCTION      0.00  1019.59     0  02:20           0        1.37      -0.024
  HS02004856           JUNCTION    158.40  1077.07     0  02:19       0.239        1.61       0.086
  HS02004862           JUNCTION    215.05  1171.56     0  02:19       0.413        2.02       0.010
  HS02004870           JUNCTION    211.95  1253.29     0  02:19       0.317        2.34       0.005
  HS02004876           JUNCTION    206.59  1372.67     0  02:25       0.327        2.67       0.029
  HS02004881           JUNCTION    115.45  1488.28     0  02:25       0.167        2.83       0.009
  HS02004901           JUNCTION    327.11   583.70     0  02:25        0.48       0.716       0.222
  WS02001211           JUNCTION      7.35   204.58     0  02:57       0.212        5.44       0.612
  WS02001212           JUNCTION      0.00   211.93     0  02:57           0        5.41       0.290
  WS02001213           JUNCTION      0.00   217.16     0  02:56           0        5.39       0.332
  WS02003059           JUNCTION      0.00   222.55     0  02:56           0        5.38       0.596
  WS02003060           JUNCTION     16.53  1494.65     0  02:26       0.476          14       0.107
  WS02003066           JUNCTION      0.00  1293.45     0  02:25           0        8.21       0.019
  WS02003067           JUNCTION      0.00  1292.49     0  02:25           0        8.21       0.054
  WS02003069           JUNCTION      0.32  1494.62     0  02:26     0.00922          14       0.111
  WS02003072           JUNCTION      0.00  1494.39     0  02:27           0          14       0.150
  WS02003073           JUNCTION      1.82  1496.38     0  02:27      0.0524          14       0.156
  WS02004138           JUNCTION      0.00   190.00     0  00:29           0        5.25       0.054
  WS02004139           JUNCTION      0.32   190.32     0  00:32     0.00924        5.26       0.507
  WS02004401           JUNCTION      0.00  1293.23     0  02:25           0        8.32       0.138
  WS02004402           JUNCTION      0.00  1293.21     0  02:25           0        8.31       0.136
  WS02004403           JUNCTION      0.00  1293.38     0  02:24           0         8.3       0.133
  WS02004404           JUNCTION      0.16  1293.35     0  02:25     0.00467         8.3       0.108
  WS02004405           JUNCTION      0.04  1294.03     0  02:24      0.0011        8.29       0.155
  WS02004406           JUNCTION      0.00  1293.57     0  02:24           0        8.28       0.264
  WS02004407           JUNCTION      0.00  1293.51     0  02:25           0        8.25       0.019
  WS02004409           JUNCTION      0.00  1292.49     0  02:25           0        8.25       0.042
  WS02004410           JUNCTION      0.00  1292.70     0  02:25           0        8.24       0.063
  WS02004411           JUNCTION      0.00  1292.69     0  02:25           0        8.24       0.075
  WS02004412           JUNCTION      0.00  1292.69     0  02:25           0        8.23       0.101
  WS02004413           JUNCTION      0.00  1292.54     0  02:25           0        8.22       0.173
  WS02006109           JUNCTION      1.23  1308.01     0  00:00      0.0354        8.09       0.148
  WS02006110           JUNCTION      0.00  1122.70     0  02:36           0        7.89      -0.442
  WS02006111           JUNCTION      0.00  1176.04     0  00:00           0        7.91      -0.475
  WS02006112           JUNCTION    265.65  2307.30     0  00:00       0.394        8.35      -0.000
  WS02006113           JUNCTION      0.00  1122.59     0  02:36           0        7.88      -0.574
  WS02006115           JUNCTION      0.00  2152.75     0  00:00           0        8.33       0.056
  WS02006116           JUNCTION      0.00  1293.15     0  02:25           0        8.32       0.035
  WS02006228           JUNCTION      0.00  1283.53     0  02:25           0        8.04       0.081
  WS02006229           JUNCTION      0.00  2296.06     0  02:25           0        9.88       0.110
  WS02006230           JUNCTION     10.28  1022.44     0  02:25       0.296        4.11       0.139
  WS02006231           JUNCTION      0.00   453.17     0  02:20           0         3.1      -0.146
  WS02006232           JUNCTION      0.00   453.48     0  02:40           0        3.11       0.169
  WS02006234           JUNCTION      0.00   453.15     0  02:16           0         3.1      -0.069
  WS02006235           JUNCTION      0.00   415.89     0  02:25           0        3.12       0.136
  WS02006238           JUNCTION      0.00   415.76     0  02:40           0        2.68      -0.089
  WS02006239           JUNCTION      0.00   415.59     0  02:40           0        2.68      -0.134
  WS02006240           JUNCTION      0.00   416.94     0  02:40           0        2.68       0.050
  WS02006242           JUNCTION      0.00   415.16     0  02:40           0        2.68       0.082
  WS02006243           JUNCTION      0.00   288.07     0  03:25           0        2.36      -0.046
  WS02006245           JUNCTION      0.00   286.61     0  01:49           0        2.37       0.345
  WS02006247           JUNCTION      0.00   300.32     0  01:50           0        2.37       0.066
  WS02006248           JUNCTION      0.00   339.49     0  02:33           0        2.61      -0.020
  WS02006249           JUNCTION      0.00  1342.51     0  02:25           0        4.84       0.132
  WS02006251           JUNCTION      0.08  1519.44     0  02:25     0.00222        4.91       0.023
  WS02006252           JUNCTION      0.00   377.19     0  02:25           0        2.16      -0.421
  WS02006253           JUNCTION     30.10  1518.93     0  02:25      0.0405        2.89       0.008
  WS02006256           JUNCTION      0.00   300.00     0  01:58           0        1.25      -0.052
  WS02006280           JUNCTION      0.00  2295.35     0  02:25           0        7.65       0.007
  WS02006284           JUNCTION      0.10  2295.22     0  02:25     0.00275        7.65       0.002
  WS02006287           JUNCTION      0.00  2295.48     0  02:25           0        7.65       0.010
  WSF200               JUNCTION      0.00  1293.66     0  02:25           0         8.2       0.010
  YS02001580           JUNCTION      0.00    76.69     0  02:15           0     0.00402      -0.912
  YS02001583           JUNCTION      0.00   138.81     0  02:15           0      0.0152      -4.347
  YS02001586           JUNCTION    584.06   584.09     0  02:26        1.32        1.33       0.078
  YS02001590           JUNCTION      0.00   317.91     0  02:27           0        1.15      -0.039
  YS02001593           JUNCTION      0.00   317.97     0  02:29           0        1.15       0.009
  YS02001596           JUNCTION      0.00   318.00     0  02:33           0        1.15      -0.004
  YS02001600           JUNCTION      0.00   317.93     0  02:27           0        1.15       0.020
  YS02001601           JUNCTION   1044.78  1362.40     0  02:26        1.86           3       0.023
  YS02001602           JUNCTION      0.00   509.58     0  02:44           0        2.11       0.024
  YS02001605           JUNCTION      0.00   509.64     0  02:45           0        2.05       0.030
  YS02001607           JUNCTION      0.00   509.87     0  02:45           0        2.05       0.096
  YS02001610           JUNCTION      0.00   510.64     0  02:26           0         2.1       0.104
  YS02001613           JUNCTION      0.00   510.45     0  02:45           0        1.83       0.092
  YS02001616           JUNCTION      0.00   510.82     0  02:45           0        1.83       0.026
  YS02001619           JUNCTION   1041.00  1041.00     0  02:26         2.1        3.87      -0.002
  YS02001622           JUNCTION      0.00   946.95     0  02:38           0        3.81       0.002
  YS02001625           JUNCTION      0.00  1108.24     0  02:26           0        3.86       0.216
  YS02001629           JUNCTION      0.00   947.69     0  02:38           0         3.4       0.030
  YS02001633           JUNCTION    785.74  1376.08     0  02:19        1.35        4.68       0.074
  YS02001641           JUNCTION      0.00  1374.89     0  02:19           0        4.63       0.061
  YS02001644           JUNCTION    703.03  1777.47     0  02:20        1.17        5.79       0.055
  YS02001647           JUNCTION      0.00  1777.12     0  02:20           0         5.7       0.003
  YS02001649           JUNCTION      0.00  2055.68     0  02:20           0        6.76       0.005
  YS02001652           JUNCTION      0.00   774.90     0  02:25           0        1.06      -0.078
  YS02001655           JUNCTION      0.15   775.47     0  02:25     0.00443        1.06       0.053
  YS02001658           JUNCTION      0.00   773.88     0  02:25           0        1.05      -0.014
  YS02001661           JUNCTION      0.00   830.13     0  02:24           0        1.05       0.026
  YS02001664           JUNCTION    695.79   695.79     0  02:25        1.05        1.05      -0.004
  YS02001745           JUNCTION    442.77   442.77     0  02:25       0.646       0.646       0.138
  YS02001748           JUNCTION      0.04   546.14     0  02:23      0.0013       0.647      -0.182
  YS02001751           JUNCTION      0.01   460.89     0  02:24    0.000317       0.651       0.058
  YS02001754           JUNCTION      0.26   461.78     0  02:24     0.00749       0.661      -0.086
  YS02001757           JUNCTION      0.00  3411.63     0  02:24           0        9.67       0.031
  YS02001759           JUNCTION    615.38  1351.64     0  02:26        0.89        2.25      -0.008
  YS02001762           JUNCTION      0.00   804.40     0  02:27           0        1.36      -0.001
  YS02001765           JUNCTION      0.00   803.78     0  02:27           0        1.36      -0.000
  YS02001767           JUNCTION      0.54   803.03     0  02:27      0.0154        1.36       0.009
  YS02001770           JUNCTION    862.99   862.99     0  02:25        1.37        1.41      -0.018
  YS02001774           JUNCTION      0.00   267.02     0  02:21           0      0.0741       1.584
  YS02001779           JUNCTION      0.01   271.00     0  02:21    0.000144      0.0328      -1.491
  YS02001783           JUNCTION      0.00  1159.78     0  02:23           0        3.58       0.005
  YS02001784           JUNCTION      1.06  1161.09     0  02:23      0.0305        3.61       0.015
  YS02001786           JUNCTION      0.06  1160.80     0  02:23     0.00162        3.61       0.018
  YS02001788           JUNCTION      0.07  1160.65     0  02:23     0.00204        3.62       0.008
  YS02001790           JUNCTION      0.15  1177.61     0  02:24     0.00446        3.62       0.014
  YS02001791           JUNCTION      0.00  1282.18     0  02:21           0        3.62      -0.011
  YS02001793           JUNCTION      0.00  1238.96     0  02:26           0        3.62       0.003
  YS02001882           JUNCTION      0.00    32.85     0  02:18           0      0.0123       5.441
  YS02001884           JUNCTION      0.00    57.20     0  02:17           0       0.048       5.396
  YS02001887           JUNCTION    663.70   663.70     0  02:25       0.939       0.972       0.460
  YS02001890           JUNCTION      0.00   664.16     0  02:25           0       0.932       0.546
  YS02001895           JUNCTION      0.00   516.85     0  02:27           0       0.898       0.159
  YS02001898           JUNCTION      0.00   517.20     0  02:27           0       0.897       0.033
  YS02001901           JUNCTION      0.00   517.27     0  02:27           0       0.899       0.362
  YS02001904           JUNCTION      0.00   517.11     0  02:27           0       0.903       0.310
  YS02001907           JUNCTION      0.00  1692.83     0  02:25           0        2.96       0.580
  YS02001910           JUNCTION      0.00  1178.91     0  02:25           0        2.06       0.342
  YS02001915           JUNCTION    758.52  1178.89     0  02:25         1.3         2.1       0.079
  YS02001918           JUNCTION      0.00   434.65     0  02:21           0        0.82       0.020
  YS02001920           JUNCTION      2.87   434.30     0  02:21      0.0827       0.806       0.116
  YS02001923           JUNCTION      0.04   406.45     0  02:24     0.00109       0.709      -0.005
  YS02001926           JUNCTION      0.05   407.57     0  02:24      0.0015       0.692      -0.007
  YS02001929           JUNCTION    370.10   370.10     0  02:26       0.683       0.683      -0.032
  YS02006553           JUNCTION      0.00   800.76     0  02:37           0        2.26       0.520
  YS02006556           JUNCTION      0.00   801.34     0  02:37           0        2.27       0.354
  YS02006558           JUNCTION    887.66  1160.21     0  02:23        1.37        3.61       0.101
  YS02006561           JUNCTION      0.00  1159.87     0  02:23           0        3.58      -0.002
  YS02163301           JUNCTION      0.00   951.49     0  02:38           0         3.4       0.046
  YS02163601           JUNCTION      0.11  1375.92     0  02:19     0.00317        4.62       0.108
  YS02164001           JUNCTION      0.00  1375.87     0  02:19           0        4.62       0.051
  YSB1154              JUNCTION    355.91   355.91     0  02:25       0.565       0.565       0.262
  YSB1171              JUNCTION      0.00   793.42     0  02:25           0        1.03       0.598
  YSB1174              JUNCTION    312.03   312.03     0  02:25       0.429        0.43       0.295
  YSB6556              JUNCTION      0.00   356.10     0  02:25           0       0.566       0.212
  CC-1                 OUTFALL       0.00   683.00     0  00:05           0        6.26       0.000
  CC-2                 OUTFALL       0.00   683.00     0  00:05           0        4.11       0.000
  JK-1                 OUTFALL       0.00  1000.00     0  00:05           0        2.45       0.000
  JK-2                 OUTFALL       0.00  1000.00     0  01:40           0        2.32       0.000
  WSC                  OUTFALL       0.00  1496.87     0  02:28           0          14       0.000
  CC-storage           STORAGE       0.00  3411.39     0  02:24           0        11.9      -4.841
  JK-storage           STORAGE       0.00  1284.19     0  02:24           0        3.77     -37.370
  XR-storage           STORAGE     200.00   200.00     0  00:00        5.76        6.36       0.001
  
  
  **********************
  Node Surcharge Summary
  **********************
  
  Surcharging occurs when water rises above the top of the highest conduit.
  ---------------------------------------------------------------------
                                               Max. Height   Min. Depth
                                   Hours       Above Crown    Below Rim
  Node                 Type      Surcharged         Meters       Meters
  ---------------------------------------------------------------------
  HS02004478           JUNCTION        0.37          0.657        0.283
  HS02004479           JUNCTION        0.49          0.892        0.158
  HS02004480           JUNCTION        0.53          0.955        0.145
  HS02004770           JUNCTION        0.44          0.720        0.000
  HS02004777           JUNCTION        0.44          0.780        0.000
  HS02004785           JUNCTION        0.40          0.777        0.013
  HS02004788           JUNCTION        0.38          0.720        0.000
  HS02004792           JUNCTION        0.50          0.900        0.000
  HS02004799           JUNCTION        0.62          1.060        0.000
  HS02004802           JUNCTION        0.54          1.074        0.136
  HS02004807           JUNCTION        0.52          1.220        0.000
  HS02004817           JUNCTION        1.08          1.734        0.006
  HS02004824           JUNCTION        0.39          1.310        0.000
  HS02004830           JUNCTION        0.36          1.330        0.000
  HS02004837           JUNCTION        0.33          1.263        0.077
  HS02004842           JUNCTION        0.45          1.520        0.000
  HS02004848           JUNCTION        0.28          1.370        0.000
  HS02004852           JUNCTION        0.31          1.420        0.000
  HS02004856           JUNCTION        0.29          1.300        0.000
  HS02004862           JUNCTION        0.33          1.300        0.000
  HS02004870           JUNCTION        0.34          1.295        0.105
  HS02004876           JUNCTION        0.39          1.243        0.317
  HS02004881           JUNCTION        0.37          1.450        0.000
  HS02004901           JUNCTION        0.44          0.720        0.000
  WS02004401           JUNCTION        1.47          0.835        0.825
  WS02004402           JUNCTION        1.49          0.778        0.962
  WS02004403           JUNCTION        1.50          0.702        1.328
  WS02004404           JUNCTION        1.59          0.718        2.062
  WS02004405           JUNCTION        1.57          0.666        2.134
  WS02004406           JUNCTION        1.55          0.556        1.894
  WS02004409           JUNCTION        0.93          0.378        1.982
  WS02004410           JUNCTION        0.82          0.288        2.252
  WS02004411           JUNCTION        0.74          0.195        2.335
  WS02004412           JUNCTION        0.65          0.099        2.211
  WS02004413           JUNCTION        1.24          0.141        2.059
  WS02006109           JUNCTION        1.85          1.820        0.000
  WS02006110           JUNCTION        1.72          1.473        0.377
  WS02006111           JUNCTION        1.20          0.907        0.963
  WS02006112           JUNCTION        1.75          1.680        0.000
  WS02006113           JUNCTION        1.22          1.007        0.923
  WS02006115           JUNCTION        1.40          0.920        1.330
  WS02006116           JUNCTION        1.42          0.868        1.422
  WS02006228           JUNCTION        1.84          2.199        0.001
  WS02006229           JUNCTION        0.78          1.040        0.030
  WS02006230           JUNCTION        1.58          1.570        0.000
  WS02006231           JUNCTION        1.60          1.530        0.000
  WS02006232           JUNCTION        1.67          1.480        0.000
  WS02006234           JUNCTION        1.60          1.240        0.000
  WS02006235           JUNCTION        1.62          1.264        0.026
  WS02006238           JUNCTION        1.63          1.269        0.161
  WS02006239           JUNCTION        1.60          1.199        0.091
  WS02006240           JUNCTION        1.59          1.053        0.337
  WS02006242           JUNCTION        1.61          0.820        0.000
  WS02006243           JUNCTION        1.58          0.770        0.000
  WS02006245           JUNCTION        1.57          0.850        0.000
  WS02006247           JUNCTION        1.58          0.760        0.000
  WS02006248           JUNCTION        1.52          0.380        0.000
  WS02006249           JUNCTION        1.54          0.390        0.000
  WS02006251           JUNCTION        1.39          1.180        0.000
  WS02006252           JUNCTION        1.45          1.100        0.000
  WS02006253           JUNCTION        1.40          2.446        0.034
  WS02006256           JUNCTION        7.42          2.050        0.000
  WS02006280           JUNCTION        0.64          0.691        0.089
  WS02006284           JUNCTION        0.56          0.664        0.136
  WS02006287           JUNCTION        0.46          0.729        0.161
  YS02001580           JUNCTION        0.46          0.450        0.000
  YS02001583           JUNCTION        0.47          0.500        0.000
  YS02001586           JUNCTION        0.57          0.510        0.000
  YS02001590           JUNCTION        0.64          0.750        0.000
  YS02001593           JUNCTION        0.64          0.714        0.126
  YS02001596           JUNCTION        0.75          0.982        0.088
  YS02001600           JUNCTION        0.92          1.190        0.000
  YS02001601           JUNCTION        1.27          1.440        0.000
  YS02001602           JUNCTION        1.15          1.270        0.000
  YS02001605           JUNCTION        1.09          1.176        0.004
  YS02001607           JUNCTION        0.58          0.645        0.035
  YS02001610           JUNCTION        0.61          0.680        0.000
  YS02001613           JUNCTION        0.57          0.654        0.046
  YS02001616           JUNCTION        0.53          0.591        0.019
  YS02001619           JUNCTION        0.52          0.585        0.025
  YS02001622           JUNCTION        0.51          0.561        0.059
  YS02001625           JUNCTION        0.70          0.780        0.000
  YS02001629           JUNCTION        0.42          0.470        0.000
  YS02001633           JUNCTION        0.71          0.996        0.064
  YS02001641           JUNCTION        0.58          0.949        0.151
  YS02001644           JUNCTION        0.52          0.920        0.000
  YS02001647           JUNCTION        0.30          0.782        0.118
  YS02001649           JUNCTION        0.33          1.024        0.026
  YS02001652           JUNCTION        0.22          0.883        0.247
  YS02001655           JUNCTION        0.16          0.836        0.364
  YS02001658           JUNCTION        0.09          0.977        0.323
  YS02001661           JUNCTION        0.01          0.316        1.074
  YS02001748           JUNCTION        0.03          0.687        0.503
  YS02001751           JUNCTION        0.11          0.686        0.514
  YS02001754           JUNCTION        0.16          0.751        0.399
  YS02001757           JUNCTION        0.31          0.998        0.212
  YS02001759           JUNCTION        0.27          0.983        0.227
  YS02001762           JUNCTION        0.25          0.981        0.169
  YS02001765           JUNCTION        0.24          0.941        0.159
  YS02001767           JUNCTION        0.22          0.929        0.101
  YS02001770           JUNCTION        0.21          0.917        0.003
  YS02001774           JUNCTION        0.25          0.993        0.057
  YS02001779           JUNCTION        0.17          0.680        0.000
  YS02001783           JUNCTION        0.43          0.541        1.059
  YS02001784           JUNCTION        0.41          0.376        1.114
  YS02001786           JUNCTION        0.30          0.119        1.311
  YS02001882           JUNCTION        0.38          0.653        0.177
  YS02001884           JUNCTION        0.39          0.686        0.184
  YS02001887           JUNCTION        0.42          0.762        0.188
  YS02001890           JUNCTION        0.44          0.760        0.000
  YS02001895           JUNCTION        0.37          0.566        0.184
  YS02001898           JUNCTION        0.36          0.535        0.205
  YS02001901           JUNCTION        0.41          0.679        0.191
  YS02001904           JUNCTION        0.40          0.638        0.212
  YS02001907           JUNCTION        0.67          0.950        0.000
  YS02001910           JUNCTION        0.46          0.996        0.104
  YS02001915           JUNCTION        0.38          0.940        0.060
  YS02001918           JUNCTION        0.29          0.810        0.000
  YS02001920           JUNCTION        0.31          1.140        0.000
  YS02001923           JUNCTION        0.02          0.820        0.000
  YS02001926           JUNCTION        0.03          0.900        0.000
  YS02001929           JUNCTION        0.01          0.780        0.000
  YS02006553           JUNCTION        0.68          0.995        0.195
  YS02006556           JUNCTION        0.55          0.955        0.395
  YS02006558           JUNCTION        0.54          0.941        0.459
  YS02006561           JUNCTION        0.26          0.254        0.896
  YS02163301           JUNCTION        0.68          0.917        0.113
  YS02163601           JUNCTION        0.74          1.030        0.050
  YS02164001           JUNCTION        0.60          0.946        0.154
  YSB1154              JUNCTION        0.74          1.239        0.161
  YSB1171              JUNCTION        0.74          1.100        0.000
  YSB1174              JUNCTION        0.66          1.100        0.150
  YSB6556              JUNCTION        0.59          1.089        0.011
  
  
  *********************
  Node Flooding Summary
  *********************
  
  Flooding refers to all water that overflows a node, whether it ponds or not.
  --------------------------------------------------------------------------
                                                             Total   Maximum
                                 Maximum   Time of Max       Flood    Ponded
                        Hours       Rate    Occurrence      Volume     Depth
  Node                 Flooded       LPS   days hr:min    10^6 ltr    Meters
  --------------------------------------------------------------------------
  HS02004770              0.28    803.13      0  02:25       0.396     0.000
  HS02004788              0.01    283.29      0  02:17       0.001     0.000
  HS02004792              0.27   1270.68      0  02:25       0.675     0.000
  HS02004799              0.13    174.11      0  02:25       0.037     0.000
  HS02004807              0.01     13.39      0  02:20       0.000     0.000
  HS02004824              0.01     15.28      0  02:20       0.000     0.000
  HS02004830              0.01     13.64      0  02:20       0.000     0.000
  HS02004842              0.01    172.67      0  02:20       0.001     0.000
  HS02004848              0.01    379.10      0  02:20       0.001     0.000
  HS02004852              0.01    270.63      0  02:20       0.000     0.000
  HS02004856              0.01    184.14      0  02:20       0.000     0.000
  HS02004862              0.01    343.25      0  02:20       0.000     0.000
  HS02004881              0.01     83.50      0  02:19       0.000     0.000
  HS02004901              0.34    583.64      0  02:25       0.482     0.000
  WS02006109              0.32    257.47      0  02:25       0.169     0.000
  WS02006112              0.01   1153.65      0  00:00       0.035     0.000
  WS02006230              0.57    569.64      0  02:25       0.729     0.000
  WS02006231              0.01      0.33      0  02:40       0.000     0.000
  WS02006232              0.14      0.84      0  02:40       0.000     0.000
  WS02006234              0.62    128.58      0  02:19       0.213     0.000
  WS02006242              0.73    137.73      0  02:40       0.315     0.000
  WS02006243              0.01    149.78      0  01:50       0.000     0.000
  WS02006245              0.01     23.24      0  01:51       0.000     0.000
  WS02006247              0.01    137.86      0  01:50       0.000     0.000
  WS02006248              1.16    339.04      0  02:33       1.095     0.000
  WS02006249              1.38   1281.58      0  02:25       3.086     0.000
  WS02006251              0.01     31.22      0  02:19       0.000     0.000
  WS02006252              0.23    376.87      0  02:25       0.164     0.000
  WS02006256              1.05    284.15      0  02:35       0.589     0.000
  YS02001580              0.01     48.70      0  02:15       0.000     0.000
  YS02001583              0.01     66.00      0  02:15       0.000     0.000
  YS02001586              0.34    266.60      0  02:26       0.166     0.000
  YS02001590              0.01      4.94      0  02:15       0.000     0.000
  YS02001600              0.01      1.49      0  02:15       0.000     0.000
  YS02001601              0.50    964.48      0  02:26       0.890     0.000
  YS02001602              0.33     61.96      0  02:29       0.067     0.000
  YS02001610              0.29    510.37      0  02:26       0.328     0.000
  YS02001625              0.24   1107.90      0  02:26       0.511     0.000
  YS02001629              0.07    126.63      0  02:24       0.017     0.000
  YS02001644              0.08    472.20      0  02:25       0.076     0.000
  YS02001779              0.06    211.20      0  02:21       0.017     0.000
  YS02001890              0.12    150.29      0  02:25       0.028     0.000
  YS02001907              0.25   1417.91      0  02:25       0.691     0.000
  YS02001918              0.01     91.73      0  02:21       0.001     0.000
  YS02001920              0.01     28.23      0  02:21       0.000     0.000
  YS02001923              0.01     29.54      0  02:21       0.000     0.000
  YS02001926              0.01    206.35      0  02:20       0.000     0.000
  YS02001929              0.01    264.28      0  02:21       0.001     0.000
  YSB1171                 0.20    793.26      0  02:25       0.309     0.000
  
  
  **********************
  Storage Volume Summary
  **********************
  
  ------------------------------------------------------------------------------------------------
                         Average    Avg   Evap  Exfil     Maximum    Max    Time of Max    Maximum
                          Volume   Pcnt   Pcnt   Pcnt      Volume   Pcnt     Occurrence    Outflow
  Storage Unit           1000 m   Full   Loss   Loss     1000 m   Full    days hr:min        LPS
  ------------------------------------------------------------------------------------------------
  CC-storage               0.809   12.6    0.0    0.0       3.194   49.8       0  03:03    1566.00
  JK-storage               0.004    1.3    0.0    0.0       0.151   51.7       0  00:05    2300.00
  XR-storage               0.946   65.7    0.0    0.0       1.111   77.1       0  08:00     190.00
  
  
  ***********************
  Outfall Loading Summary
  ***********************
  
  -----------------------------------------------------------
                         Flow       Avg       Max       Total
                         Freq      Flow      Flow      Volume
  Outfall Node           Pcnt       LPS       LPS    10^6 ltr
  -----------------------------------------------------------
  CC-1                  54.55    547.95    683.00       6.259
  CC-2                  75.06    318.00    683.00       4.114
  JK-1                  77.18    132.39   1000.00       2.447
  JK-2                  48.91    199.39   1000.00       2.322
  WSC                   99.99    563.02   1496.87      14.009
  -----------------------------------------------------------
  System                71.14   1760.75   3862.87      29.152
  
  
  ********************
  Link Flow Summary
  ********************
  
  -----------------------------------------------------------------------------
                                 Maximum  Time of Max   Maximum    Max/    Max/
                                  |Flow|   Occurrence   |Veloc|    Full    Full
  Link                 Type          LPS  days hr:min     m/sec    Flow   Depth
  -----------------------------------------------------------------------------
  1                    CONDUIT   1496.87     0  02:28      3.69    0.52    0.51
  HS02004478WS02006287 CONDUIT   2295.48     0  02:25      2.57    0.64    1.00
  HS02004479HS02004480 CONDUIT    402.84     0  02:20      0.58    0.39    1.00
  HS02004480HS02004478 CONDUIT   2072.33     0  02:18      2.96    8.73    1.00
  HS02004770HS02004777 CONDUIT    718.32     0  02:16      1.03    1.31    1.00
  HS02004777HS02004785 CONDUIT    731.12     0  02:16      1.10    0.90    1.00
  HS02004785HS02004788 CONDUIT    691.44     0  02:17      1.35    5.21    1.00
  HS02004788HS02004792 CONDUIT    831.68     0  02:17      1.45    0.55    1.00
  HS02004792HS02004799 CONDUIT   1574.73     0  02:18      2.25    0.96    1.00
  HS02004799HS02004480 CONDUIT   1726.33     0  02:18      2.47    2.18    1.00
  HS02004802HS02004478 CONDUIT   1126.83     0  02:25      1.61    0.99    1.00
  HS02004807HS02004802 CONDUIT   1126.68     0  02:25      1.61    2.15    1.00
  HS02004817HS02004807 CONDUIT    747.77     0  02:26      1.07    0.44    1.00
  HS02004817HS02004824 CONDUIT    747.23     0  02:26      1.07    0.34    1.00
  HS02004824HS02004830 CONDUIT    591.37     0  02:17      0.85    0.77    1.00
  HS02004830HS02004837 CONDUIT    596.76     0  02:17      0.94    0.59    1.00
  HS02004837HS02004842 CONDUIT    787.05     0  02:18      1.12    0.47    1.00
  HS02004842HS02004848 CONDUIT    787.37     0  02:18      1.24    0.46    1.00
  HS02004848HS02004852 CONDUIT   1019.59     0  02:20      1.58    1.15    1.00
  HS02004852HS02004856 CONDUIT    984.96     0  02:19      1.46    1.13    1.00
  HS02004856HS02004862 CONDUIT   1050.98     0  02:19      1.69    1.05    1.00
  HS02004862HS02004870 CONDUIT   1132.77     0  02:19      1.90    1.22    1.00
  HS02004870HS02004876 CONDUIT   1166.25     0  02:25      1.76    0.77    1.00
  HS02004876HS02004881 CONDUIT   1373.11     0  02:25      2.40   14.60    1.00
  HS02004881HS02006253 CONDUIT   1488.99     0  02:25      2.31    0.29    1.00
  HS02004901HS02004770 CONDUIT    265.76     0  02:34      0.38    1.00    1.00
  WS02001211WS02001212 CONDUIT    211.93     0  02:57      0.54    0.16    0.69
  WS02001212WS02001213 CONDUIT    217.16     0  02:56      1.04    0.34    0.56
  WS02001213WS02003059 CONDUIT    222.55     0  02:56      0.47    0.37    0.89
  WS02003059WS02003060 CONDUIT    229.03     0  02:56      0.66    0.15    0.81
  WS02003060WS02003069 CONDUIT   1494.30     0  02:26      2.08    0.59    0.61
  WS02003066WSF200     CONDUIT   1293.66     0  02:25      3.25    0.22    0.38
  WS02003067WS02003066 CONDUIT   1293.45     0  02:25      1.99    0.41    0.56
  WS02003069WS02003072 CONDUIT   1494.39     0  02:27      1.89    0.72    0.66
  WS02003072WS02003073 CONDUIT   1494.56     0  02:27      2.05    3.23    0.62
  WS02004138WS02004139 CONDUIT    190.00     0  00:32      2.17    0.04    0.41
  WS02004139WS02001211 CONDUIT    197.23     0  02:57      0.55    0.25    0.60
  WS02004401WS02004402 CONDUIT   1293.21     0  02:25      2.07    1.55    1.00
  WS02004402WS02004403 CONDUIT   1293.38     0  02:24      1.84    1.86    1.00
  WS02004403WS02004404 CONDUIT   1293.18     0  02:25      1.68    0.93    1.00
  WS02004404WS02004405 CONDUIT   1293.99     0  02:24      1.86   12.68    1.00
  WS02004405WS02004406 CONDUIT   1293.57     0  02:24      1.80    2.55    1.00
  WS02004406WS02004407 CONDUIT   1293.51     0  02:25      1.69    0.58    0.96
  WS02004407WS02004409 CONDUIT   1292.49     0  02:25      1.74    0.46    0.96
  WS02004409WS02004410 CONDUIT   1292.70     0  02:25      1.65    1.67    1.00
  WS02004410WS02004411 CONDUIT   1292.69     0  02:25      1.65    1.77    1.00
  WS02004411WS02004412 CONDUIT   1292.69     0  02:25      1.65    1.84    1.00
  WS02004412WS02004413 CONDUIT   1292.54     0  02:25      1.65    0.87    1.00
  WS02004413WS02003067 CONDUIT   1292.49     0  02:25      2.00    0.55    0.77
  WS02006109WS02006110 CONDUIT   1306.78     0  00:00      3.15    2.51    1.00
  WS02006110WS02006113 CONDUIT   1122.59     0  02:36      2.23    1.02    1.00
  WS02006111WS02006112 CONDUIT   2307.30     0  00:00      9.18    1.10    1.00
  WS02006112WS02006115 CONDUIT   2152.75     0  00:00      2.85    1.27    1.00
  WS02006113WS02006111 CONDUIT   1176.04     0  00:00      2.63    1.41    1.00
  WS02006115WS02006116 CONDUIT   1293.15     0  02:25      1.81    1.66    1.00
  WS02006116WS02004401 CONDUIT   1293.23     0  02:25      2.21    1.78    1.00
  WS02006228WS02006109 CONDUIT   1283.53     0  02:25      2.55    5.61    1.00
  WS02006229WS02006228 CONDUIT   1283.53     0  02:25      2.55    4.25    1.00
  WS02006230WS02006229 CONDUIT   1012.16     0  02:25      2.63   22.53    1.00
  WS02006231WS02006230 CONDUIT    453.17     0  02:20      1.29    6.87    1.00
  WS02006232WS02006231 CONDUIT    453.48     0  02:40      1.18    0.95    1.00
  WS02006234WS02006232 CONDUIT    453.15     0  02:16      1.18    0.92    1.00
  WS02006235WS02006234 CONDUIT    415.89     0  02:25      1.08    4.39    1.00
  WS02006238WS02006235 CONDUIT    415.76     0  02:40      1.23    0.93    1.00
  WS02006239WS02006238 CONDUIT    415.59     0  02:40      1.08    1.33    1.00
  WS02006240WS02006239 CONDUIT    416.94     0  02:40      1.09    1.31    1.00
  WS02006242WS02006240 CONDUIT    415.16     0  02:40      1.08    1.65    1.00
  WS02006243WS02006242 CONDUIT    315.18     0  03:25      1.14    0.67    1.00
  WS02006245WS02006243 CONDUIT    288.07     0  03:25      1.20    0.85    1.00
  WS02006247WS02006245 CONDUIT    286.61     0  01:49      1.17    2.27    1.00
  WS02006248WS02006247 CONDUIT    300.32     0  01:50      1.17    0.65    1.00
  WS02006249WS02006248 CONDUIT    306.77     0  01:50      1.16    1.68    1.00
  WS02006251WS02006249 CONDUIT   1342.51     0  02:25      3.49    3.87    1.00
  WS02006252WS02006251 CONDUIT   1298.45     0  00:05     20.66    4.77    1.00
  WS02006253WS02006251 CONDUIT   1519.36     0  02:25      3.95    4.56    1.00
  WS02006256WS02006235 CONDUIT    242.82     0  03:40      3.44    2.57    1.00
  WS02006280WS02006229 CONDUIT   2296.06     0  02:25      3.93    0.49    1.00
  WS02006284WS02006280 CONDUIT   2295.35     0  02:25      3.02    0.96    1.00
  WS02006287WS02006284 CONDUIT   2295.12     0  02:25      2.92    1.06    1.00
  WSF200WS02003060     CONDUIT   1294.08     0  02:26      2.29    0.29    0.50
  YS02001580YS02001583 CONDUIT     76.69     0  02:15      0.56    0.30    1.00
  YS02001583YS02001586 CONDUIT    138.81     0  02:15      0.58    0.21    1.00
  YS02001586YS02001590 CONDUIT    317.91     0  02:27      1.25    0.56    1.00
  YS02001590YS02001593 CONDUIT    317.97     0  02:29      1.12    2.00    1.00
  YS02001593YS02001596 CONDUIT    318.00     0  02:33      1.76    0.50    1.00
  YS02001596YS02001600 CONDUIT    317.93     0  02:27      1.25    0.62    1.00
  YS02001600YS02001601 CONDUIT    318.23     0  02:29      1.13    0.55    1.00
  YS02001601YS02001602 CONDUIT    509.58     0  02:44      1.80    1.84    1.00
  YS02001602YS02001605 CONDUIT    509.64     0  02:45      1.80   10.78    1.00
  YS02001605YS02001607 CONDUIT    509.87     0  02:45      1.80    2.80    1.00
  YS02001607YS02001610 CONDUIT    510.14     0  02:45      0.65    0.49    1.00
  YS02001610YS02001613 CONDUIT    510.45     0  02:45      0.65    0.59    1.00
  YS02001613YS02001616 CONDUIT    510.82     0  02:45      0.65    0.44    1.00
  YS02001616YS02001619 CONDUIT    511.47     0  02:45      0.68    0.89    1.00
  YS02001619YS02001622 CONDUIT    946.95     0  02:38      1.21    1.40    1.00
  YS02001622YS02001625 CONDUIT    947.43     0  02:38      1.21    0.51    1.00
  YS02001625YS02001629 CONDUIT    947.69     0  02:38      1.21    0.45    1.00
  YS02001629YS02163301 CONDUIT    951.49     0  02:38      1.21    1.17    1.00
  YS02001633YS02163601 CONDUIT   1375.81     0  02:19      1.75    1.44    1.00
  YS02001641YS02001644 CONDUIT   1374.03     0  02:19      1.75    4.44    1.00
  YS02001644YS02001647 CONDUIT   1777.12     0  02:20      2.27    1.04    1.00
  YS02001647YS02001649 CONDUIT   1792.42     0  02:20      2.32    0.95    1.00
  YS02001649YS02001757 CONDUIT   2053.25     0  02:19      2.62    1.25    1.00
  YS02001652YS02001649 CONDUIT    774.65     0  02:25      0.99    0.38    1.00
  YS02001655YS02001652 CONDUIT    774.90     0  02:25      1.21    0.38    1.00
  YS02001658YS02001655 CONDUIT    775.32     0  02:25      1.84    0.33    1.00
  YS02001661YS02001658 CONDUIT    773.88     0  02:25      2.30    0.30    1.00
  YS02001664YS02001661 CONDUIT    830.13     0  02:24      2.30    0.26    0.75
  YS02001745YS02001748 CONDUIT    546.09     0  02:23      2.17    0.21    0.85
  YS02001748YS02001751 CONDUIT    460.87     0  02:24      1.66    0.23    1.00
  YS02001751YS02001754 CONDUIT    461.52     0  02:24      1.31    0.22    1.00
  YS02001754YS02001757 CONDUIT    462.09     0  02:24      0.59    0.19    1.00
  YS02001757CaochengTiaoxuchi CONDUIT   3411.39     0  02:24      6.24    1.48    0.93
  YS02001759YS02001757 CONDUIT   1351.76     0  02:26      1.72    0.96    1.00
  YS02001762YS02001759 CONDUIT    805.47     0  02:27      1.03    0.93    1.00
  YS02001765YS02001762 CONDUIT    804.40     0  02:27      1.02    0.75    1.00
  YS02001767YS02001765 CONDUIT    803.78     0  02:27      1.02    1.01    1.00
  YS02001770YS02001767 CONDUIT    802.50     0  02:27      1.02    3.18    1.00
  YS02001774YS02001770 CONDUIT    267.02     0  02:21      0.34    0.17    1.00
  YS02001779YS02001774 CONDUIT    271.00     0  02:21      0.35    0.14    1.00
  YS02001783YS02001784 CONDUIT   1160.03     0  02:23      2.31    1.60    1.00
  YS02001784YS02001785 CONDUIT   1160.75     0  02:23      2.31    2.70    1.00
  YS02001786YS02001788 CONDUIT   1160.58     0  02:23      2.48    2.24    0.89
  YS02001788YS02001790 CONDUIT   1177.45     0  02:24      2.73    0.87    0.84
  YS02001790YS02001791 CONDUIT   1282.18     0  02:21      3.42    1.40    0.70
  YS02001791YS02001793 CONDUIT   1238.96     0  02:26      6.77    0.53    0.43
  YS02001793JiankangQianchi CONDUIT   1284.19     0  02:24     24.30    0.10    0.60
  YS02001882YS02001884 CONDUIT     32.85     0  02:18      0.11    0.04    1.00
  YS02001884YS02001887 CONDUIT     57.20     0  02:17      0.08    0.08    1.00
  YS02001887YS02001890 CONDUIT    664.16     0  02:25      0.85    1.14    1.00
  YS02001890YS02001895 CONDUIT    516.85     0  02:27      0.66    0.24    1.00
  YS02001895YS02001898 CONDUIT    517.20     0  02:27      0.66    0.90    1.00
  YS02001898YS02001901 CONDUIT    517.27     0  02:27      0.66    0.33    1.00
  YS02001901YS02001904 CONDUIT    517.11     0  02:27      0.66    0.80    1.00
  YS02001904YS02001907 CONDUIT    517.15     0  02:27      0.66    0.18    1.00
  YS02001907YS02006553 CONDUIT    800.76     0  02:37      0.89    0.94    1.00
  YS02001910YS02001907 CONDUIT   1179.00     0  02:25      1.50    0.66    1.00
  YS02001915YS02001910 CONDUIT   1178.91     0  02:25      1.50    0.59    1.00
  YS02001918YS02001915 CONDUIT    434.91     0  02:21      0.55    0.24    1.00
  YS02001920YS02001918 CONDUIT    434.65     0  02:21      0.67    0.42    1.00
  YS02001923YS02001920 CONDUIT    431.43     0  02:21      0.68    0.19    1.00
  YS02001926YS02001923 CONDUIT    406.42     0  02:24      0.95    0.58    1.00
  YS02001929YS02001926 CONDUIT    407.51     0  02:24      1.09    0.19    1.00
  YS02006553YS02006556 CONDUIT    801.34     0  02:37      1.02    0.69    1.00
  YS02006556YS02006558 CONDUIT    803.13     0  02:37      1.02    0.63    1.00
  YS02006558YS02006561 CONDUIT   1159.87     0  02:23      4.10    2.56    1.00
  YS02006561YS02001783 CONDUIT   1159.78     0  02:23      2.31    0.60    1.00
  YS02163301YS02001633 CONDUIT    952.01     0  02:38      1.21    0.89    1.00
  YS02163601YS02164001 CONDUIT   1375.87     0  02:19      1.75    1.22    1.00
  YS02164001YS02001641 CONDUIT   1374.89     0  02:19      1.75    1.88    1.00
  YSB1154YSB6556       CONDUIT    356.10     0  02:25      0.93    0.64    1.00
  YSB1171HS02004479    CONDUIT    402.61     0  02:20      0.80    0.27    1.00
  YSB1174YSB1171       CONDUIT    312.12     0  02:25      0.81    0.48    1.00
  YSB6556YSB1171       CONDUIT    356.81     0  02:25      0.93    0.37    1.00
  CC-R1                PUMP       683.00     0  00:05              1.00
  CC-R2                PUMP       683.00     0  00:05              1.00
  CC-S1                PUMP       200.00     0  01:36              1.00
  CC-S2                PUMP       200.00     0  00:05              1.00
  JK-R1                PUMP      1000.00     0  00:05              1.00
  JK-R2                PUMP      1000.00     0  01:40              1.00
  JK-S                 PUMP       300.00     0  01:58              1.00
  XR-1                 PUMP        95.00     0  00:10              1.00
  XR-2                 PUMP        95.00     0  00:29              1.00
  XR-3                 PUMP         0.00     0  00:00              0.00
  XR-4                 PUMP         0.00     0  00:00              0.00
  
  
  ***************************
  Flow Classification Summary
  ***************************
  
  -------------------------------------------------------------------------------------
                      Adjusted    ---------- Fraction of Time in Flow Class ---------- 
                       /Actual         Up    Down  Sub   Sup   Up    Down  Norm  Inlet 
  Conduit               Length    Dry  Dry   Dry   Crit  Crit  Crit  Crit  Ltd   Ctrl  
  -------------------------------------------------------------------------------------
  1                       1.00   0.00  0.00  0.00  0.00  1.00  0.00  0.00  0.47  0.00
  HS02004478WS02006287    1.00   0.16  0.00  0.00  0.65  0.18  0.00  0.00  0.59  0.00
  HS02004479HS02004480    1.00   0.04  0.00  0.00  0.96  0.00  0.00  0.00  0.11  0.00
  HS02004480HS02004478    1.00   0.13  0.00  0.00  0.60  0.00  0.00  0.27  0.00  0.00
  HS02004770HS02004777    1.00   0.00  0.13  0.00  0.87  0.00  0.00  0.00  0.03  0.00
  HS02004777HS02004785    1.00   0.00  0.00  0.00  1.00  0.00  0.00  0.00  0.12  0.00
  HS02004785HS02004788    1.00   0.00  0.00  0.00  1.00  0.00  0.00  0.00  0.00  0.00
  HS02004788HS02004792    1.00   0.00  0.00  0.00  0.99  0.01  0.00  0.00  0.92  0.00
  HS02004792HS02004799    1.00   0.00  0.00  0.00  0.99  0.01  0.00  0.00  0.88  0.00
  HS02004799HS02004480    1.00   0.00  0.03  0.00  0.84  0.00  0.12  0.00  0.00  0.00
  HS02004802HS02004478    1.00   0.13  0.01  0.00  0.86  0.00  0.00  0.00  0.03  0.00
  HS02004807HS02004802    1.00   0.13  0.00  0.00  0.85  0.00  0.00  0.02  0.00  0.00
  HS02004817HS02004807    1.00   0.00  0.13  0.00  0.87  0.00  0.00  0.00  0.01  0.00
  HS02004817HS02004824    1.00   0.00  0.00  0.00  1.00  0.00  0.00  0.00  0.83  0.00
  HS02004824HS02004830    1.00   0.00  0.00  0.00  1.00  0.00  0.00  0.00  0.01  0.00
  HS02004830HS02004837    1.00   0.00  0.00  0.00  1.00  0.00  0.00  0.00  0.90  0.00
  HS02004837HS02004842    1.00   0.00  0.00  0.00  0.99  0.01  0.00  0.00  0.11  0.00
  HS02004842HS02004848    1.00   0.00  0.13  0.00  0.87  0.00  0.00  0.00  0.56  0.00
  HS02004848HS02004852    1.00   0.13  0.00  0.00  0.87  0.00  0.00  0.00  0.70  0.00
  HS02004852HS02004856    1.00   0.13  0.01  0.00  0.86  0.00  0.00  0.00  0.68  0.00
  HS02004856HS02004862    1.00   0.00  0.17  0.00  0.83  0.00  0.00  0.00  0.75  0.00
  HS02004862HS02004870    1.00   0.00  0.00  0.00  1.00  0.00  0.00  0.00  0.04  0.00
  HS02004870HS02004876    1.00   0.00  0.00  0.00  1.00  0.00  0.00  0.00  0.87  0.00
  HS02004876HS02004881    1.00   0.01  0.00  0.00  0.84  0.15  0.00  0.00  0.00  0.00
  HS02004881HS02006253    1.00   0.03  0.02  0.00  0.31  0.01  0.00  0.64  0.25  0.00
  HS02004901HS02004770    1.00   0.13  0.00  0.00  0.87  0.00  0.00  0.00  0.00  0.00
  WS02001211WS02001212    1.00   0.00  0.02  0.00  0.98  0.00  0.00  0.00  0.00  0.00
  WS02001212WS02001213    1.00   0.02  0.00  0.00  0.33  0.00  0.64  0.00  0.00  0.00
  WS02001213WS02003059    1.00   0.00  0.01  0.00  0.99  0.00  0.00  0.00  0.00  0.00
  WS02003059WS02003060    1.00   0.00  0.00  0.00  1.00  0.00  0.00  0.00  0.03  0.00
  WS02003060WS02003069    1.00   0.00  0.00  0.00  0.97  0.03  0.00  0.00  0.44  0.00
  WS02003066WSF200        1.00   0.06  0.00  0.00  0.00  0.94  0.00  0.00  0.70  0.00
  WS02003067WS02003066    1.00   0.05  0.01  0.00  0.94  0.00  0.00  0.00  0.00  0.00
  WS02003069WS02003072    1.00   0.00  0.00  0.00  0.99  0.01  0.00  0.00  0.63  0.00
  WS02003072WS02003073    1.00   0.00  0.00  0.00  0.00  0.00  0.00  1.00  0.00  0.00
  WS02004138WS02004139    1.00   0.02  0.00  0.00  0.97  0.01  0.00  0.00  0.98  0.00
  WS02004139WS02001211    1.00   0.00  0.01  0.00  0.99  0.00  0.00  0.00  0.00  0.00
  WS02004401WS02004402    1.00   0.00  0.00  0.00  1.00  0.00  0.00  0.00  0.00  0.00
  WS02004402WS02004403    1.00   0.00  0.00  0.00  1.00  0.00  0.00  0.00  0.00  0.00
  WS02004403WS02004404    1.00   0.00  0.00  0.00  1.00  0.00  0.00  0.00  0.00  0.00
  WS02004404WS02004405    1.00   0.00  0.00  0.00  1.00  0.00  0.00  0.00  0.01  0.00
  WS02004405WS02004406    1.00   0.00  0.00  0.00  1.00  0.00  0.00  0.00  0.00  0.00
  WS02004406WS02004407    1.00   0.00  0.01  0.00  0.99  0.00  0.00  0.00  0.01  0.00
  WS02004407WS02004409    1.00   0.01  0.00  0.00  0.98  0.01  0.00  0.00  0.88  0.00
  WS02004409WS02004410    1.00   0.01  0.00  0.00  0.99  0.00  0.00  0.00  0.00  0.00
  WS02004410WS02004411    1.00   0.01  0.00  0.00  0.99  0.00  0.00  0.00  0.01  0.00
  WS02004411WS02004412    1.00   0.01  0.00  0.00  0.99  0.00  0.00  0.00  0.00  0.00
  WS02004412WS02004413    1.00   0.01  0.00  0.00  0.99  0.00  0.00  0.00  0.02  0.00
  WS02004413WS02003067    1.00   0.01  0.04  0.00  0.00  0.00  0.95  0.00  0.00  0.00
  WS02006109WS02006110    1.00   0.00  0.00  0.00  1.00  0.00  0.00  0.00  0.00  0.00
  WS02006110WS02006113    1.00   0.00  0.00  0.00  1.00  0.00  0.00  0.00  0.00  0.00
  WS02006111WS02006112    1.00   0.00  0.00  0.00  1.00  0.00  0.00  0.00  0.80  0.00
  WS02006112WS02006115    1.00   0.00  0.00  0.00  1.00  0.00  0.00  0.00  0.00  0.00
  WS02006113WS02006111    1.00   0.00  0.00  0.00  0.18  0.82  0.00  0.00  0.06  0.00
  WS02006115WS02006116    1.00   0.00  0.00  0.00  1.00  0.00  0.00  0.00  0.00  0.00
  WS02006116WS02004401    1.00   0.00  0.00  0.00  1.00  0.00  0.00  0.00  0.00  0.00
  WS02006228WS02006109    1.00   0.00  0.00  0.00  1.00  0.00  0.00  0.00  0.00  0.00
  WS02006229WS02006228    1.00   0.00  0.00  0.00  1.00  0.00  0.00  0.00  0.00  0.00
  WS02006230WS02006229    1.00   0.00  0.00  0.00  1.00  0.00  0.00  0.00  0.00  0.00
  WS02006231WS02006230    1.00   0.00  0.00  0.00  0.30  0.00  0.70  0.00  0.00  0.00
  WS02006232WS02006231    1.00   0.00  0.00  0.00  0.99  0.00  0.00  0.00  0.01  0.00
  WS02006234WS02006232    1.00   0.00  0.01  0.00  0.99  0.00  0.00  0.00  0.03  0.00
  WS02006235WS02006234    1.00   0.02  0.00  0.00  0.88  0.00  0.10  0.00  0.00  0.00
  WS02006238WS02006235    1.00   0.02  0.00  0.00  0.98  0.00  0.00  0.00  0.00  0.00
  WS02006239WS02006238    1.00   0.02  0.00  0.00  0.98  0.00  0.00  0.00  0.08  0.00
  WS02006240WS02006239    1.00   0.02  0.00  0.00  0.61  0.00  0.00  0.37  0.01  0.00
  WS02006242WS02006240    1.00   0.01  0.00  0.00  0.98  0.00  0.01  0.00  0.00  0.00
  WS02006243WS02006242    1.00   0.01  0.00  0.00  0.98  0.00  0.00  0.01  0.60  0.00
  WS02006245WS02006243    1.00   0.01  0.00  0.00  0.88  0.00  0.00  0.11  0.01  0.00
  WS02006247WS02006245    1.00   0.01  0.00  0.00  0.98  0.00  0.00  0.01  0.00  0.00
  WS02006248WS02006247    1.00   0.01  0.00  0.00  0.98  0.00  0.00  0.01  0.55  0.00
  WS02006249WS02006248    1.00   0.00  0.01  0.00  0.44  0.00  0.55  0.00  0.00  0.00
  WS02006251WS02006249    1.00   0.00  0.00  0.00  1.00  0.00  0.00  0.00  0.53  0.00
  WS02006252WS02006251    1.00   0.01  0.07  0.00  0.18  0.00  0.73  0.00  0.00  0.00
  WS02006253WS02006251    1.00   0.01  0.00  0.00  0.99  0.00  0.00  0.00  0.00  0.00
  WS02006256WS02006235    1.00   0.02  0.00  0.00  0.98  0.00  0.00  0.00  0.00  0.00
  WS02006280WS02006229    1.00   0.14  0.00  0.00  0.15  0.03  0.00  0.69  0.01  0.00
  WS02006284WS02006280    1.00   0.14  0.00  0.00  0.09  0.01  0.00  0.76  0.00  0.00
  WS02006287WS02006284    1.00   0.10  0.06  0.00  0.55  0.28  0.00  0.00  0.65  0.00
  WSF200WS02003060        1.00   0.00  0.06  0.00  0.71  0.23  0.00  0.00  0.61  0.00
  YS02001580YS02001583    1.00   0.28  0.55  0.00  0.17  0.00  0.00  0.00  0.64  0.00
  YS02001583YS02001586    1.00   0.41  0.36  0.00  0.22  0.00  0.00  0.00  0.64  0.00
  YS02001586YS02001590    1.00   0.13  0.00  0.00  0.43  0.04  0.00  0.40  0.39  0.00
  YS02001590YS02001593    1.00   0.13  0.01  0.00  0.09  0.00  0.77  0.00  0.00  0.00
  YS02001593YS02001596    1.00   0.14  0.00  0.00  0.11  0.01  0.00  0.74  0.02  0.00
  YS02001596YS02001600    1.00   0.14  0.00  0.00  0.18  0.02  0.00  0.66  0.05  0.00
  YS02001600YS02001601    1.00   0.13  0.01  0.00  0.86  0.00  0.00  0.00  0.61  0.00
  YS02001601YS02001602    1.00   0.13  0.01  0.00  0.86  0.00  0.00  0.00  0.00  0.00
  YS02001602YS02001605    1.00   0.14  0.00  0.00  0.86  0.00  0.00  0.00  0.00  0.00
  YS02001605YS02001607    1.00   0.14  0.00  0.00  0.86  0.00  0.00  0.00  0.00  0.00
  YS02001607YS02001610    1.00   0.13  0.01  0.00  0.86  0.00  0.00  0.00  0.02  0.00
  YS02001610YS02001613    1.00   0.13  0.00  0.00  0.87  0.00  0.00  0.00  0.01  0.00
  YS02001613YS02001616    1.00   0.13  0.00  0.00  0.87  0.00  0.00  0.00  0.01  0.00
  YS02001616YS02001619    1.00   0.13  0.00  0.00  0.87  0.00  0.00  0.00  0.00  0.00
  YS02001619YS02001622    1.00   0.13  0.00  0.00  0.87  0.00  0.00  0.00  0.28  0.00
  YS02001622YS02001625    1.00   0.13  0.00  0.00  0.87  0.00  0.00  0.00  0.05  0.00
  YS02001625YS02001629    1.00   0.13  0.05  0.00  0.14  0.00  0.68  0.00  0.00  0.00
  YS02001629YS02163301    1.00   0.16  0.01  0.00  0.83  0.00  0.00  0.00  0.00  0.00
  YS02001633YS02163601    1.00   0.00  0.01  0.00  0.99  0.00  0.00  0.00  0.15  0.00
  YS02001641YS02001644    1.00   0.00  0.01  0.00  0.99  0.00  0.00  0.00  0.00  0.00
  YS02001644YS02001647    1.00   0.00  0.18  0.00  0.82  0.00  0.00  0.00  0.00  0.00
  YS02001647YS02001649    1.00   0.00  0.18  0.00  0.51  0.31  0.00  0.00  0.56  0.00
  YS02001649YS02001757    1.00   0.00  0.00  0.00  0.83  0.17  0.00  0.00  0.84  0.00
  YS02001652YS02001649    1.00   0.00  0.00  0.00  0.96  0.04  0.00  0.00  0.75  0.00
  YS02001655YS02001652    1.00   0.00  0.00  0.00  0.16  0.02  0.00  0.82  0.09  0.00
  YS02001658YS02001655    1.00   0.00  0.14  0.00  0.59  0.27  0.00  0.00  0.75  0.00
  YS02001661YS02001658    1.00   0.14  0.00  0.00  0.43  0.42  0.00  0.00  0.73  0.00
  YS02001664YS02001661    1.00   0.13  0.00  0.00  0.74  0.13  0.00  0.00  0.86  0.00
  YS02001745YS02001748    1.00   0.00  0.00  0.00  0.03  0.01  0.00  0.97  0.02  0.00
  YS02001748YS02001751    1.00   0.00  0.00  0.00  0.75  0.25  0.00  0.00  0.80  0.00
  YS02001751YS02001754    1.00   0.00  0.00  0.00  0.10  0.01  0.00  0.89  0.05  0.00
  YS02001754YS02001757    1.00   0.00  0.00  0.00  1.00  0.00  0.00  0.00  0.87  0.00
  YS02001757CaochengTiaoxuchi    1.00   0.00  0.00  0.00  0.24  0.76  0.00  0.00  0.20  0.00
  YS02001759YS02001757    1.00   0.00  0.00  0.00  1.00  0.00  0.00  0.00  0.71  0.00
  YS02001762YS02001759    1.00   0.00  0.00  0.00  1.00  0.00  0.00  0.00  0.05  0.00
  YS02001765YS02001762    1.00   0.00  0.00  0.00  1.00  0.00  0.00  0.00  0.74  0.00
  YS02001767YS02001765    1.00   0.00  0.00  0.00  1.00  0.00  0.00  0.00  0.00  0.00
  YS02001770YS02001767    1.00   0.00  0.00  0.00  1.00  0.00  0.00  0.00  0.00  0.00
  YS02001774YS02001770    1.00   0.00  0.13  0.00  0.70  0.00  0.16  0.00  0.03  0.00
  YS02001779YS02001774    1.00   0.00  0.00  0.00  1.00  0.00  0.00  0.00  0.80  0.00
  YS02001783YS02001784    1.00   0.00  0.19  0.00  0.81  0.00  0.00  0.00  0.55  0.00
  YS02001784YS02001785    1.00   0.00  0.00  0.00  1.00  0.00  0.00  0.00  0.17  0.00
  YS02001786YS02001788    1.00   0.00  0.00  0.00  0.79  0.21  0.00  0.00  0.00  0.00
  YS02001788YS02001790    1.00   0.00  0.00  0.00  0.21  0.79  0.00  0.00  0.81  0.00
  YS02001790YS02001791    1.00   0.00  0.00  0.00  0.01  0.99  0.00  0.00  0.16  0.00
  YS02001791YS02001793    1.00   0.00  0.00  0.00  0.00  1.00  0.00  0.00  0.01  0.00
  YS02001793JiankangQianchi    1.00   0.00  0.00  0.00  0.05  0.95  0.00  0.00  0.11  0.00
  YS02001882YS02001884    1.00   0.15  0.01  0.00  0.84  0.00  0.00  0.00  0.00  0.00
  YS02001884YS02001887    1.00   0.06  0.05  0.00  0.89  0.00  0.00  0.00  0.00  0.00
  YS02001887YS02001890    1.00   0.00  0.00  0.00  0.97  0.00  0.03  0.00  0.00  0.00
  YS02001890YS02001895    1.00   0.00  0.17  0.00  0.83  0.00  0.00  0.00  0.00  0.00
  YS02001895YS02001898    1.00   0.17  0.00  0.00  0.81  0.00  0.02  0.00  0.00  0.00
  YS02001898YS02001901    1.00   0.17  0.00  0.00  0.83  0.00  0.00  0.00  0.01  0.00
  YS02001901YS02001904    1.00   0.17  0.00  0.00  0.83  0.00  0.00  0.00  0.00  0.00
  YS02001904YS02001907    1.00   0.00  0.17  0.00  0.83  0.00  0.00  0.00  0.00  0.00
  YS02001907YS02006553    1.00   0.00  0.02  0.00  0.98  0.00  0.00  0.00  0.00  0.00
  YS02001910YS02001907    1.00   0.00  0.00  0.00  0.97  0.00  0.00  0.03  0.12  0.00
  YS02001915YS02001910    1.00   0.00  0.00  0.00  0.96  0.04  0.00  0.00  0.17  0.00
  YS02001918YS02001915    1.00   0.00  0.00  0.00  0.98  0.02  0.00  0.00  0.77  0.00
  YS02001920YS02001918    1.00   0.00  0.00  0.00  1.00  0.00  0.00  0.00  0.01  0.00
  YS02001923YS02001920    1.00   0.00  0.00  0.00  1.00  0.00  0.00  0.00  0.94  0.00
  YS02001926YS02001923    1.00   0.00  0.07  0.00  0.05  0.00  0.88  0.00  0.00  0.00
  YS02001929YS02001926    1.00   0.00  0.13  0.00  0.87  0.00  0.00  0.00  0.83  0.00
  YS02006553YS02006556    1.00   0.01  0.00  0.00  0.99  0.00  0.00  0.00  0.03  0.00
  YS02006556YS02006558    1.00   0.00  0.00  0.00  1.00  0.00  0.00  0.00  0.00  0.00
  YS02006558YS02006561    1.00   0.19  0.00  0.00  0.04  0.77  0.00  0.00  0.19  0.00
  YS02006561YS02001783    1.00   0.19  0.00  0.00  0.08  0.74  0.00  0.00  0.69  0.00
  YS02163301YS02001633    1.00   0.00  0.16  0.00  0.84  0.00  0.00  0.00  0.00  0.00
  YS02163601YS02164001    1.00   0.00  0.08  0.00  0.92  0.00  0.00  0.00  0.00  0.00
  YS02164001YS02001641    1.00   0.01  0.07  0.00  0.92  0.00  0.00  0.00  0.06  0.00
  YSB1154YSB6556          1.00   0.12  0.00  0.00  0.88  0.00  0.00  0.00  0.02  0.00
  YSB1171HS02004479       1.00   0.04  0.00  0.00  0.95  0.00  0.00  0.01  0.10  0.00
  YSB1174YSB1171          1.00   0.05  0.04  0.00  0.91  0.00  0.00  0.00  0.00  0.00
  YSB6556YSB1171          1.00   0.04  0.08  0.00  0.88  0.00  0.00  0.00  0.00  0.00
  
  
  *************************
  Conduit Surcharge Summary
  *************************
  
  ----------------------------------------------------------------------------
                                                           Hours        Hours 
                         --------- Hours Full --------   Above Full   Capacity
  Conduit                Both Ends  Upstream  Dnstream   Normal Flow   Limited
  ----------------------------------------------------------------------------
  HS02004478WS02006287        0.37      0.37      0.54      0.01         0.01
  HS02004479HS02004480        0.53      0.53      0.56      0.01         0.01
  HS02004480HS02004478        0.47      0.53      0.47      1.59         0.47
  HS02004770HS02004777        0.44      0.44      0.44      0.10         0.06
  HS02004777HS02004785        0.40      0.40      0.44      0.01         0.01
  HS02004785HS02004788        0.38      0.40      0.38      1.26         0.36
  HS02004788HS02004792        0.38      0.38      0.50      0.01         0.01
  HS02004792HS02004799        0.50      0.50      0.62      0.01         0.01
  HS02004799HS02004480        0.53      0.53      0.62      0.71         0.01
  HS02004802HS02004478        0.48      0.48      0.55      0.01         0.01
  HS02004807HS02004802        0.52      0.52      0.54      0.18         0.18
  HS02004817HS02004807        0.52      0.52      1.08      0.01         0.01
  HS02004817HS02004824        0.39      0.39      1.08      0.01         0.01
  HS02004824HS02004830        0.36      0.36      0.39      0.01         0.01
  HS02004830HS02004837        0.33      0.33      0.36      0.01         0.01
  HS02004837HS02004842        0.33      0.33      0.45      0.01         0.01
  HS02004842HS02004848        0.28      0.28      0.45      0.01         0.01
  HS02004848HS02004852        0.28      0.28      0.31      0.03         0.01
  HS02004852HS02004856        0.31      0.31      0.32      0.02         0.01
  HS02004856HS02004862        0.29      0.29      0.33      0.01         0.01
  HS02004862HS02004870        0.33      0.33      0.34      0.09         0.08
  HS02004870HS02004876        0.34      0.34      0.39      0.01         0.01
  HS02004876HS02004881        0.37      0.39      0.37      1.31         0.37
  HS02004881HS02006253        0.37      0.37      1.40      0.01         0.01
  HS02004901HS02004770        0.44      0.44      0.44      0.01         0.01
  WS02003072WS02003073        0.01      0.01      0.01      2.63         0.01
  WS02004401WS02004402        1.47      1.47      1.49      1.31         1.31
  WS02004402WS02004403        1.49      1.49      1.50      1.47         1.46
  WS02004403WS02004404        1.50      1.50      1.59      0.01         0.01
  WS02004404WS02004405        1.57      1.59      1.57      3.26         1.57
  WS02004405WS02004406        1.55      1.57      1.55      1.72         1.55
  WS02004406WS02004407        0.01      0.01      1.55      0.01         0.01
  WS02004407WS02004409        0.01      0.01      0.93      0.01         0.01
  WS02004409WS02004410        0.82      0.93      0.82      1.39         0.82
  WS02004410WS02004411        0.74      0.82      0.74      1.44         0.74
  WS02004411WS02004412        0.65      0.74      0.65      1.47         0.65
  WS02004412WS02004413        0.65      0.65      1.24      0.01         0.01
  WS02004413WS02003067        0.01      0.01      1.24      0.01         0.01
  WS02006109WS02006110        1.72      1.72      1.86      1.73         0.01
  WS02006110WS02006113        1.22      1.22      1.86      0.26         0.01
  WS02006111WS02006112        1.19      1.20      2.50      0.01         0.01
  WS02006112WS02006115        1.40      1.40      1.74      0.01         0.01
  WS02006113WS02006111        1.21      1.22      1.21      1.30         1.21
  WS02006115WS02006116        1.41      1.41      1.42      1.39         1.37
  WS02006116WS02004401        1.47      1.47      1.47      1.45         1.44
  WS02006228WS02006109        1.85      1.86      1.85      2.71         1.85
  WS02006229WS02006228        1.84      1.85      1.84      2.32         1.84
  WS02006230WS02006229        1.99      2.13      1.99      3.92         1.05
  WS02006231WS02006230        1.58      1.58      1.60      3.06         0.87
  WS02006232WS02006231        1.60      1.60      1.67      0.01         0.11
  WS02006234WS02006232        1.62      1.62      1.67      0.01         0.01
  WS02006235WS02006234        1.60      1.60      1.62      2.66         0.86
  WS02006238WS02006235        1.63      1.63      1.64      0.01         0.29
  WS02006239WS02006238        1.62      1.62      1.63      0.69         0.02
  WS02006240WS02006239        1.59      1.60      1.60      0.69         0.01
  WS02006242WS02006240        1.59      1.59      1.62      0.95         0.74
  WS02006243WS02006242        1.58      1.58      1.61      0.01         0.01
  WS02006245WS02006243        1.58      1.58      1.58      0.01         0.01
  WS02006247WS02006245        1.57      1.58      1.57      2.34         0.39
  WS02006248WS02006247        1.54      1.54      1.58      0.01         0.01
  WS02006249WS02006248        1.52      1.52      1.54      1.24         0.01
  WS02006251WS02006249        1.52      1.52      1.54      1.10         1.11
  WS02006252WS02006251        1.39      1.40      1.44      0.01         0.01
  WS02006253WS02006251        1.51      1.51      1.53      0.66         0.01
  WS02006256WS02006235        2.96      2.97      7.41      0.81         0.01
  WS02006280WS02006229        0.66      0.66      0.78      0.01         0.01
  WS02006284WS02006280        0.56      0.56      0.64      0.01         0.01
  WS02006287WS02006284        0.46      0.46      0.57      0.21         0.21
  YS02001580YS02001583        0.46      0.46      0.50      0.01         0.01
  YS02001583YS02001586        0.47      0.47      0.57      0.01         0.01
  YS02001586YS02001590        0.57      0.57      0.64      0.01         0.01
  YS02001590YS02001593        0.64      0.64      0.66      0.67         0.01
  YS02001593YS02001596        0.65      0.65      0.75      0.01         0.01
  YS02001596YS02001600        0.81      0.81      0.92      0.01         0.01
  YS02001600YS02001601        0.98      0.98      1.27      0.01         0.01
  YS02001601YS02001602        1.15      1.15      1.31      0.94         0.01
  YS02001602YS02001605        1.09      1.09      1.15      2.25         0.01
  YS02001605YS02001607        1.05      1.09      1.05      1.23         1.05
  YS02001607YS02001610        0.58      0.58      0.61      0.01         0.01
  YS02001610YS02001613        0.57      0.57      0.61      0.01         0.01
  YS02001613YS02001616        0.53      0.53      0.57      0.01         0.01
  YS02001616YS02001619        0.52      0.52      0.53      0.01         0.01
  YS02001619YS02001622        0.51      0.52      0.51      0.68         0.49
  YS02001622YS02001625        0.51      0.51      0.70      0.01         0.01
  YS02001625YS02001629        0.42      0.42      0.70      0.01         0.01
  YS02001629YS02163301        0.67      0.67      0.68      0.33         0.33
  YS02001633YS02163601        0.71      0.71      0.74      0.45         0.45
  YS02001641YS02001644        0.52      0.58      0.52      1.37         0.52
  YS02001644YS02001647        0.30      0.30      0.52      0.04         0.01
  YS02001647YS02001649        0.30      0.30      0.33      0.01         0.01
  YS02001649YS02001757        0.31      0.33      0.31      0.38         0.26
  YS02001652YS02001649        0.23      0.23      0.33      0.01         0.01
  YS02001655YS02001652        0.16      0.16      0.22      0.01         0.01
  YS02001658YS02001655        0.09      0.09      0.16      0.01         0.01
  YS02001661YS02001658        0.01      0.01      0.09      0.01         0.01
  YS02001664YS02001661        0.01      0.01      0.01      0.01         0.01
  YS02001745YS02001748        0.01      0.01      0.03      0.01         0.01
  YS02001748YS02001751        0.07      0.07      0.11      0.01         0.01
  YS02001751YS02001754        0.11      0.11      0.16      0.01         0.01
  YS02001754YS02001757        0.17      0.17      0.31      0.01         0.01
  YS02001757CaochengTiaoxuchi        0.01      0.31      0.60      0.42         0.01
  YS02001759YS02001757        0.27      0.27      0.31      0.01         0.01
  YS02001762YS02001759        0.25      0.25      0.27      0.01         0.02
  YS02001765YS02001762        0.24      0.24      0.25      0.01         0.01
  YS02001767YS02001765        0.22      0.22      0.24      0.01         0.04
  YS02001770YS02001767        0.22      0.23      0.22      0.50         0.22
  YS02001774YS02001770        0.21      0.21      0.25      0.01         0.01
  YS02001779YS02001774        0.17      0.17      0.25      0.01         0.01
  YS02001783YS02001784        0.41      0.43      0.41      0.59         0.41
  YS02001784YS02001785        0.30      0.41      0.30      0.82         0.30
  YS02001786YS02001788        0.01      0.30      0.01      0.70         0.01
  YS02001790YS02001791        0.01      0.01      0.01      0.40         0.01
  YS02001793JiankangQianchi        0.01      0.01      0.21      0.01         0.01
  YS02001882YS02001884        0.38      0.38      0.39      0.01         0.01
  YS02001884YS02001887        0.41      0.41      0.42      0.01         0.01
  YS02001887YS02001890        0.44      0.44      0.45      0.05         0.01
  YS02001890YS02001895        0.37      0.37      0.47      0.01         0.01
  YS02001895YS02001898        0.36      0.36      0.37      0.01         0.01
  YS02001898YS02001901        0.37      0.37      0.41      0.01         0.01
  YS02001901YS02001904        0.40      0.40      0.41      0.01         0.01
  YS02001904YS02001907        0.40      0.40      0.68      0.01         0.01
  YS02001907YS02006553        0.83      0.83      0.90      0.01         0.01
  YS02001910YS02001907        0.46      0.46      0.67      0.01         0.01
  YS02001915YS02001910        0.38      0.38      0.46      0.01         0.01
  YS02001918YS02001915        0.29      0.29      0.38      0.01         0.01
  YS02001920YS02001918        0.29      0.29      0.31      0.01         0.01
  YS02001923YS02001920        0.25      0.25      0.31      0.01         0.01
  YS02001926YS02001923        0.02      0.02      0.03      0.01         0.01
  YS02001929YS02001926        0.01      0.01      0.03      0.01         0.01
  YS02006553YS02006556        0.55      0.55      0.68      0.01         0.01
  YS02006556YS02006558        0.62      0.62      0.70      0.01         0.01
  YS02006558YS02006561        0.33      0.54      0.33      0.77         0.33
  YS02006561YS02001783        0.26      0.26      0.43      0.01         0.01
  YS02163301YS02001633        0.68      0.68      0.73      0.01         0.01
  YS02163601YS02164001        0.60      0.60      0.74      0.28         0.01
  YS02164001YS02001641        0.58      0.60      0.58      0.69         0.49
  YSB1154YSB6556              0.59      0.59      0.74      0.01         0.01
  YSB1171HS02004479           0.49      0.49      0.74      0.01         0.01
  YSB1174YSB1171              0.66      0.66      0.98      0.01         0.01
  YSB6556YSB1171              0.59      0.59      1.14      0.01         0.01
  
  
  ***************
  Pumping Summary
  ***************
  
  ---------------------------------------------------------------------------------------------------------
                                                  Min       Avg       Max     Total     Power    % Time Off
                        Percent   Number of      Flow      Flow      Flow    Volume     Usage    Pump Curve
  Pump                 Utilized   Start-Ups       LPS       LPS       LPS  10^6 ltr     Kw-hr    Low   High
  ---------------------------------------------------------------------------------------------------------
  CC-R1                   47.92           9      0.00    547.95    683.00     6.261    103.40    0.0   84.3
  CC-R2                   77.08           8      0.00    318.00    683.00     4.117     66.29    0.0  100.0
  CC-S1                   25.00           5      0.00    188.28    200.00     1.354     10.58    0.0   47.7
  CC-S2                   56.25          11      0.00     89.06    200.00     0.773      5.83    0.0   87.0
  JK-R1                   81.25           9      0.00    132.39   1000.00     2.451      7.34    0.0    0.0
  JK-R2                   43.75           9      0.00    199.39   1000.00     2.322      5.95    0.0    0.0
  JK-S                    38.54          11      0.00    115.82    300.00     1.251     28.06    0.0    0.0
  XR-1                    97.91           1      0.00     95.00     95.00     2.679      9.64    0.0    0.0
  XR-2                    93.95           1      0.00     95.00     95.00     2.570      8.80    0.0    0.0
  XR-3                     0.00           0      0.00      0.00      0.00     0.000      0.00    0.0    0.0
  XR-4                     0.00           0      0.00      0.00      0.00     0.000      0.00    0.0    0.0
  

  Analysis begun on:  Thu Jun 15 06:46:31 2023
  Analysis ended on:  Thu Jun 15 06:46:35 2023
  Total elapsed time: 00:00:04