
  OWA STORM WATER MANAGEMENT MODEL - VERSION v5.2.3 (OWA 2023-03-28)
  ------------------------------------------------------------

  WARNING 04: minimum elevation drop used for Conduit WS02004404WS02004405
  WARNING 03: negative offset ignored for Link YS02001904YS02001907
  
  ****************
  Analysis Options
  ****************
  Flow Units ............... LPS
  Process Models:
    Rainfall/Runoff ........ YES
    RDII ................... NO
    Snowmelt ............... NO
    Groundwater ............ NO
    Flow Routing ........... YES
    Ponding Allowed ........ NO
    Water Quality .......... NO
  Infiltration Method ...... HORTON
  Flow Routing Method ...... DYNWAVE
  Surcharge Method ......... EXTRAN
  Starting Date ............ 08/28/2015 08:00:00
  Ending Date .............. 08/28/2015 16:00:00
  Antecedent Dry Days ...... 8.0
  Report Time Step ......... 00:01:00
  Wet Time Step ............ 00:01:00
  Dry Time Step ............ 00:01:00
  Routing Time Step ........ 30.00 sec
  Variable Time Step ....... YES
  Maximum Trials ........... 8
  Number of Threads ........ 1
  Head Tolerance ........... 0.001500 m
  
  
  **************************        Volume         Depth
  Runoff Quantity Continuity     hectare-m            mm
  **************************     ---------       -------
  Total Precipitation ......         2.188        36.111
  Evaporation Loss .........         0.000         0.000
  Infiltration Loss ........         0.215         3.545
  Surface Runoff ...........         1.913        31.572
  Final Storage ............         0.061         1.003
  Continuity Error (%) .....        -0.027
  
  
  **************************        Volume        Volume
  Flow Routing Continuity        hectare-m      10^6 ltr
  **************************     ---------     ---------
  Dry Weather Inflow .......         0.630         6.296
  Wet Weather Inflow .......         1.912        19.123
  Groundwater Inflow .......         0.000         0.000
  RDII Inflow ..............         0.000         0.000
  External Inflow ..........         0.105         1.045
  External Outflow .........         2.471        24.707
  Flooding Loss ............         0.540         5.403
  Evaporation Loss .........         0.000         0.000
  Exfiltration Loss ........         0.000         0.000
  Initial Stored Volume ....         0.303         3.031
  Final Stored Volume ......         0.173         1.730
  Continuity Error (%) .....        -7.952
  
  
  *************************
  Highest Continuity Errors
  *************************
  Node JK-storage (-50.63%)
  Node YS02001583 (-16.68%)
  Node CC-storage (-7.38%)
  Node YS02001884 (4.88%)
  Node HS02004842 (2.04%)
  
  
  ***************************
  Time-Step Critical Elements
  ***************************
  Link WS02006252WS02006251 (75.97%)
  Link WS02006280WS02006229 (9.07%)
  Link YS02001793JiankangQianchi (6.74%)
  Link WS02006238WS02006235 (2.54%)
  
  
  ********************************
  Highest Flow Instability Indexes
  ********************************
  Link WS02006113WS02006111 (23)
  Link WS02006111WS02006112 (12)
  Link WS02006252WS02006251 (11)
  Link WS02004404WS02004405 (11)
  Link WS02006238WS02006235 (10)
  
  
  *********************************
  Most Frequent Nonconverging Nodes
  *********************************
  Node CC-1 (6.37%)
  Node CC-2 (6.37%)
  Node JK-1 (6.37%)
  Node JK-2 (6.37%)
  Node WSC (6.37%)
  
  
  *************************
  Routing Time Step Summary
  *************************
  Minimum Time Step           :     0.00 sec
  Average Time Step           :     1.58 sec
  Maximum Time Step           :    30.00 sec
  % of Time in Steady State   :     0.00
  Average Iterations per Step :     2.68
  % of Steps Not Converging   :     6.37
  Time Step Frequencies       :
     30.000 - 13.228 sec      :     0.01 %
     13.228 -  5.833 sec      :     0.13 %
      5.833 -  2.572 sec      :    17.62 %
      2.572 -  1.134 sec      :    36.79 %
      1.134 -  0.500 sec      :    45.46 %
  
  
  ***************************
  Subcatchment Runoff Summary
  ***************************
  
  ------------------------------------------------------------------------------------------------------------------------------
                            Total      Total      Total      Total     Imperv       Perv      Total       Total     Peak  Runoff
                           Precip      Runon       Evap      Infil     Runoff     Runoff     Runoff      Runoff   Runoff   Coeff
  Subcatchment                 mm         mm         mm         mm         mm         mm         mm    10^6 ltr      LPS
  ------------------------------------------------------------------------------------------------------------------------------
  sub0                      36.11       0.00       0.00       0.93      32.33       1.60      33.94        0.03    22.08   0.940
  sub1                      36.11       0.00       0.00       1.55      30.89       2.43      33.32        0.22   135.36   0.923
  sub10                     36.11       0.00       0.00       1.10      31.94       1.79      33.73        0.37   235.52   0.934
  sub11                     36.11       0.00       0.00       1.08      31.96       1.81      33.76        0.39   267.90   0.935
  sub12                     36.11       0.00       0.00       1.76      30.24       2.94      33.17        0.29   219.46   0.919
  sub14                     36.11       0.00       0.00       1.23      31.60       2.02      33.62        0.32   210.73   0.931
  sub15                     36.11       0.00       0.00       4.75      24.31       6.09      30.39        0.52   299.74   0.842
  sub16                     36.11       0.00       0.00       4.93      23.28       6.99      30.27        0.32   204.99   0.838
  sub17                     36.11       0.00       0.00       4.81      23.63       6.75      30.38        0.26   166.67   0.841
  sub2                      36.11       0.00       0.00       6.69      21.85       6.68      28.52        0.27   126.93   0.790
  sub22                     36.11       0.00       0.00       7.17      19.80       8.36      28.17        1.78   974.61   0.780
  sub23                     36.11       0.00       0.00       5.87      21.89       7.50      29.38        1.40   823.45   0.814
  sub3                      36.11       0.00       0.00       7.18      21.81       6.18      27.99        0.63   267.81   0.775
  sub4                      36.11       0.00       0.00       1.71      30.73       2.26      33.00        0.69   299.63   0.914
  sub5                      36.11       0.00       0.00       0.96      32.28       1.57      33.85        0.38   236.57   0.937
  sub60                     36.11       0.00       0.00       1.65      30.57       2.68      33.26        0.44   301.01   0.921
  sub61                     36.11       0.00       0.00       2.39      28.84       3.76      32.59        0.60   411.63   0.903
  sub62                     36.11       0.00       0.00       1.10      31.93       1.79      33.72        0.92   572.77   0.934
  sub63                     36.11       0.00       0.00       4.37      24.67       6.10      30.77        0.70   438.70   0.852
  sub64                     36.11       0.00       0.00       2.21      29.49       3.20      32.69        0.79   447.60   0.905
  sub65                     36.11       0.00       0.00       1.92      30.16       2.78      32.94        0.91   495.04   0.912
  sub66                     36.11       0.00       0.00       5.31      24.57       5.16      29.73        1.39   604.38   0.823
  sub67                     36.11       0.00       0.00       1.07      31.97       1.82      33.80        0.63   471.77   0.936
  sub68                     36.11       0.00       0.00       1.98      29.87       3.08      32.95        0.91   587.15   0.912
  sub69                     36.11       0.00       0.00       1.70      30.58       3.72      34.30        1.27   674.73   0.950
  sub7                      36.11       0.00       0.00       1.22      31.62       2.03      33.65        0.11    79.66   0.932
  sub70                     36.11       0.00       0.00       5.55      23.67       6.72      30.40        0.88   344.89   0.842
  sub71                     36.11       0.00       0.00       1.13      31.90       1.76      33.66        0.88   487.62   0.932
  sub72                     36.11       0.00       0.00       1.00      32.19       1.53      33.71        0.46   228.10   0.934
  sub8                      36.11       0.00       0.00       1.23      31.61       2.02      33.63        0.21   144.25   0.931
  sub9                      36.11       0.00       0.00       1.23      31.60       2.02      33.63        0.16   107.43   0.931
  
  
  ******************
  Node Depth Summary
  ******************
  
  ---------------------------------------------------------------------------------
                                 Average  Maximum  Maximum  Time of Max    Reported
                                   Depth    Depth      HGL   Occurrence   Max Depth
  Node                 Type       Meters   Meters   Meters  days hr:min      Meters
  ---------------------------------------------------------------------------------
  HS02004478           JUNCTION     0.16     1.54    10.77     0  01:51        1.44
  HS02004479           JUNCTION     0.23     1.69    10.90     0  01:51        1.67
  HS02004480           JUNCTION     0.19     1.67    10.91     0  01:51        1.61
  HS02004770           JUNCTION     0.21     1.42    11.25     0  01:48        1.42
  HS02004777           JUNCTION     0.23     1.48    11.28     0  01:48        1.48
  HS02004785           JUNCTION     0.13     1.49    11.39     0  01:48        1.49
  HS02004788           JUNCTION     0.10     1.42    11.32     0  01:48        1.42
  HS02004792           JUNCTION     0.14     1.60    11.12     0  01:48        1.60
  HS02004799           JUNCTION     0.25     1.76    10.97     0  01:49        1.76
  HS02004802           JUNCTION     0.25     1.74    10.87     0  01:51        1.55
  HS02004807           JUNCTION     0.22     1.83    11.00     0  01:51        1.52
  HS02004817           JUNCTION     0.52     2.26    11.11     0  01:51        1.91
  HS02004824           JUNCTION     0.10     1.83    11.23     0  01:51        1.43
  HS02004830           JUNCTION     0.11     1.92    11.39     0  01:51        1.39
  HS02004837           JUNCTION     0.09     2.04    11.62     0  01:51        1.27
  HS02004842           JUNCTION     0.38     2.22    11.49     0  01:51        1.48
  HS02004848           JUNCTION     0.07     2.07    11.67     0  01:51        1.07
  HS02004852           JUNCTION     0.07     2.12    11.63     0  01:51        1.12
  HS02004856           JUNCTION     0.13     2.07    11.50     0  01:51        1.17
  HS02004862           JUNCTION     0.08     2.00    11.38     0  01:51        1.16
  HS02004870           JUNCTION     0.08     2.10    11.39     0  01:51        1.18
  HS02004876           JUNCTION     0.12     2.25    11.28     0  01:51        1.34
  HS02004881           JUNCTION     0.07     2.12    11.15     0  01:51        1.23
  HS02004901           JUNCTION     0.22     1.42    11.24     0  01:48        1.42
  WS02001211           JUNCTION     0.62     0.84     5.68     0  01:54        0.83
  WS02001212           JUNCTION     0.36     0.61     5.67     0  01:53        0.60
  WS02001213           JUNCTION     0.57     0.91     5.67     0  01:53        0.86
  WS02003059           JUNCTION     0.64     0.96     5.65     0  01:56        0.96
  WS02003060           JUNCTION     0.36     0.68     5.61     0  01:56        0.68
  WS02003066           JUNCTION     0.21     0.45     6.00     0  01:54        0.45
  WS02003067           JUNCTION     0.51     0.90     6.22     0  01:48        0.88
  WS02003069           JUNCTION     0.40     0.77     5.35     0  01:57        0.77
  WS02003072           JUNCTION     0.46     0.80     5.17     0  01:57        0.80
  WS02003073           JUNCTION     0.28     0.51     4.57     0  01:56        0.51
  WS02004138           JUNCTION     0.13     0.14     7.39     0  00:32        0.14
  WS02004139           JUNCTION     0.56     0.76     5.67     0  01:53        0.76
  WS02004401           JUNCTION     0.70     2.05     8.05     0  01:46        1.74
  WS02004402           JUNCTION     0.72     2.05     8.01     0  01:46        1.69
  WS02004403           JUNCTION     0.74     1.99     7.92     0  01:46        1.63
  WS02004404           JUNCTION     0.81     1.99     7.84     0  01:46        1.64
  WS02004405           JUNCTION     0.80     1.89     7.74     0  01:46        1.60
  WS02004406           JUNCTION     0.80     1.59     7.42     0  01:46        1.50
  WS02004407           JUNCTION     0.22     0.86     7.17     0  01:50        0.86
  WS02004409           JUNCTION     0.47     1.34     7.11     0  01:51        1.33
  WS02004410           JUNCTION     0.48     1.28     7.00     0  01:48        1.25
  WS02004411           JUNCTION     0.49     1.18     6.86     0  01:48        1.17
  WS02004412           JUNCTION     0.50     1.21     6.85     0  01:48        1.08
  WS02004413           JUNCTION     0.65     1.16     6.63     0  01:48        1.13
  WS02006109           JUNCTION     0.84     2.64     9.26     0  01:49        2.64
  WS02006110           JUNCTION     0.80     2.59     9.18     0  01:46        2.36
  WS02006111           JUNCTION     0.33     2.02     8.73     0  01:46        1.62
  WS02006112           JUNCTION     0.89     2.68     8.56     0  00:00        2.22
  WS02006113           JUNCTION     0.40     2.19     9.08     0  01:46        1.73
  WS02006115           JUNCTION     0.60     2.15     8.28     0  01:46        1.82
  WS02006116           JUNCTION     0.68     2.13     8.17     0  01:46        1.83
  WS02006228           JUNCTION     0.87     3.02     9.67     0  01:51        2.98
  WS02006229           JUNCTION     0.86     3.21     9.91     0  01:51        3.15
  WS02006230           JUNCTION     0.81     2.65     9.39     0  01:46        2.65
  WS02006231           JUNCTION     0.56     2.20     9.32     0  01:58        2.20
  WS02006232           JUNCTION     0.66     2.18     9.22     0  01:47        2.18
  WS02006234           JUNCTION     0.55     1.96     9.12     0  01:47        1.96
  WS02006235           JUNCTION     0.57     1.96     9.13     0  02:10        1.93
  WS02006238           JUNCTION     0.59     1.98     9.12     0  02:10        1.93
  WS02006239           JUNCTION     0.54     1.96     9.17     0  01:43        1.80
  WS02006240           JUNCTION     0.50     2.10     9.39     0  01:43        1.64
  WS02006242           JUNCTION     0.55     1.55     8.82     0  01:44        1.55
  WS02006243           JUNCTION     0.45     1.48     8.90     0  01:44        1.37
  WS02006245           JUNCTION     0.44     1.56     9.05     0  01:44        1.28
  WS02006247           JUNCTION     0.45     1.47     8.97     0  01:44        1.23
  WS02006248           JUNCTION     0.40     1.10     8.69     0  01:44        1.10
  WS02006249           JUNCTION     0.43     1.09     8.69     0  01:44        1.09
  WS02006251           JUNCTION     0.46     2.21     9.88     0  01:45        2.05
  WS02006252           JUNCTION     0.33     1.50     9.74     0  01:45        1.50
  WS02006253           JUNCTION     0.51     3.22    10.86     0  01:51        2.58
  WS02006256           JUNCTION     0.87     2.35     9.28     0  00:11        2.35
  WS02006280           JUNCTION     0.20     1.73    10.00     0  01:51        1.68
  WS02006284           JUNCTION     0.47     1.93    10.33     0  01:51        1.85
  WS02006287           JUNCTION     0.21     1.71    10.66     0  01:51        1.60
  WSF200               JUNCTION     0.20     0.51     5.75     0  01:56        0.51
  YS02001580           JUNCTION     0.05     1.05     9.59     0  01:49        0.77
  YS02001583           JUNCTION     0.08     1.14     9.64     0  01:49        0.82
  YS02001586           JUNCTION     0.13     1.13     9.30     0  01:48        1.13
  YS02001590           JUNCTION     0.22     1.40     9.26     0  01:48        1.38
  YS02001593           JUNCTION     0.15     1.39     9.26     0  01:49        1.29
  YS02001596           JUNCTION     0.20     1.75     9.16     0  01:48        1.66
  YS02001600           JUNCTION     0.25     1.87     9.00     0  01:48        1.86
  YS02001601           JUNCTION     0.44     2.06     8.90     0  01:48        2.06
  YS02001602           JUNCTION     0.36     1.87     8.77     0  01:49        1.87
  YS02001605           JUNCTION     0.33     1.78     8.68     0  01:49        1.78
  YS02001607           JUNCTION     0.34     1.66     8.51     0  01:49        1.65
  YS02001610           JUNCTION     0.38     1.68     8.48     0  01:49        1.68
  YS02001613           JUNCTION     0.34     1.70     8.54     0  01:49        1.65
  YS02001616           JUNCTION     0.27     1.61     8.52     0  01:49        1.58
  YS02001619           JUNCTION     0.25     1.61     8.54     0  01:49        1.56
  YS02001622           JUNCTION     0.23     1.58     8.48     0  01:49        1.55
  YS02001625           JUNCTION     0.49     1.78     8.38     0  01:49        1.78
  YS02001629           JUNCTION     0.34     1.85     8.40     0  01:49        1.85
  YS02001633           JUNCTION     0.41     2.05     8.50     0  01:53        2.04
  YS02001641           JUNCTION     0.40     1.97     8.40     0  01:52        1.91
  YS02001644           JUNCTION     0.40     1.92     8.35     0  01:52        1.81
  YS02001647           JUNCTION     0.19     1.73     8.34     0  01:52        1.45
  YS02001649           JUNCTION     0.21     1.93     8.32     0  01:52        1.52
  YS02001652           JUNCTION     0.11     2.01     8.61     0  01:52        1.30
  YS02001655           JUNCTION     0.08     2.20     9.05     0  01:52        1.05
  YS02001658           JUNCTION     0.06     0.89     8.03     0  01:54        0.75
  YS02001661           JUNCTION     0.11     0.58     7.98     0  01:55        0.58
  YS02001664           JUNCTION     0.04     0.25     8.18     0  01:51        0.25
  YS02001745           JUNCTION     0.04     0.29     7.81     0  01:53        0.29
  YS02001748           JUNCTION     0.05     0.77     7.85     0  01:53        0.69
  YS02001751           JUNCTION     0.06     0.98     7.86     0  01:53        0.95
  YS02001754           JUNCTION     0.08     1.29     7.90     0  01:53        1.23
  YS02001757           JUNCTION     0.21     1.60     7.86     0  01:52        1.52
  YS02001759           JUNCTION     0.15     1.57     7.94     0  01:52        1.45
  YS02001762           JUNCTION     0.15     1.72     8.12     0  01:52        1.43
  YS02001765           JUNCTION     0.13     1.78     8.23     0  01:52        1.42
  YS02001767           JUNCTION     0.14     1.80     8.29     0  01:52        1.39
  YS02001770           JUNCTION     0.15     1.87     8.36     0  01:52        1.41
  YS02001774           JUNCTION     0.22     1.94     8.37     0  01:52        1.49
  YS02001779           JUNCTION     0.06     1.68     8.37     0  01:52        1.24
  YS02001783           JUNCTION     0.19     1.27     7.41     0  01:51        1.21
  YS02001784           JUNCTION     0.21     1.14     7.21     0  01:51        1.09
  YS02001786           JUNCTION     0.18     0.89     6.92     0  01:51        0.86
  YS02001788           JUNCTION     0.12     0.62     6.60     0  01:51        0.62
  YS02001790           JUNCTION     0.15     0.72     6.36     0  01:53        0.71
  YS02001791           JUNCTION     0.09     0.43     5.90     0  01:53        0.42
  YS02001793           JUNCTION     0.06     0.25     5.09     0  01:53        0.25
  YS02001882           JUNCTION     0.24     1.83     8.55     0  01:50        1.62
  YS02001884           JUNCTION     0.32     1.85     8.47     0  01:50        1.71
  YS02001887           JUNCTION     0.40     1.82     8.36     0  01:50        1.79
  YS02001890           JUNCTION     0.43     1.81     8.32     0  01:50        1.81
  YS02001895           JUNCTION     0.21     1.60     8.35     0  01:50        1.55
  YS02001898           JUNCTION     0.22     1.63     8.36     0  01:50        1.55
  YS02001901           JUNCTION     0.32     1.69     8.30     0  01:51        1.66
  YS02001904           JUNCTION     0.31     1.65     8.28     0  01:51        1.64
  YS02001907           JUNCTION     0.61     1.96     8.25     0  01:51        1.96
  YS02001910           JUNCTION     0.42     1.98     8.48     0  01:52        1.80
  YS02001915           JUNCTION     0.24     1.92     8.64     0  01:52        1.63
  YS02001918           JUNCTION     0.12     1.81     8.88     0  01:52        1.35
  YS02001920           JUNCTION     0.20     2.14     9.15     0  01:52        1.43
  YS02001923           JUNCTION     0.08     2.03     9.29     0  01:52        1.20
  YS02001926           JUNCTION     0.13     1.90     9.35     0  01:51        1.23
  YS02001929           JUNCTION     0.06     1.78     9.47     0  01:52        0.82
  YS02006553           JUNCTION     0.62     1.98     8.26     0  01:51        1.96
  YS02006556           JUNCTION     0.59     1.95     8.26     0  01:51        1.91
  YS02006558           JUNCTION     0.64     1.99     8.26     0  01:51        1.94
  YS02006561           JUNCTION     0.11     0.97     7.63     0  01:51        0.86
  YS02163301           JUNCTION     0.36     1.94     8.46     0  01:53        1.93
  YS02163601           JUNCTION     0.45     2.08     8.48     0  01:53        2.08
  YS02164001           JUNCTION     0.39     2.00     8.46     0  01:53        1.97
  YSB1154              JUNCTION     0.36     1.92    10.98     0  01:49        1.92
  YSB1171              JUNCTION     0.50     1.95    10.85     0  01:49        1.95
  YSB1174              JUNCTION     0.31     1.83    10.94     0  01:49        1.83
  YSB6556              JUNCTION     0.26     1.77    10.94     0  01:49        1.77
  CC-1                 OUTFALL      0.00     0.00     0.00     0  00:00        0.00
  CC-2                 OUTFALL      0.00     0.00     0.00     0  00:00        0.00
  JK-1                 OUTFALL      0.00     0.00     0.00     0  00:00        0.00
  JK-2                 OUTFALL      0.00     0.00     0.00     0  00:00        0.00
  WSC                  OUTFALL      0.27     0.51     1.18     0  01:58        0.51
  CC-storage           STORAGE      0.21     0.81     6.31     0  02:25        0.81
  JK-storage           STORAGE      0.10     3.00     3.80     0  00:05        3.00
  XR-storage           STORAGE      7.85     9.26     7.26     0  08:00        9.26
  
  
  *******************
  Node Inflow Summary
  *******************
  
  -------------------------------------------------------------------------------------------------
                                  Maximum  Maximum                  Lateral       Total        Flow
                                  Lateral    Total  Time of Max      Inflow      Inflow     Balance
                                   Inflow   Inflow   Occurrence      Volume      Volume       Error
  Node                 Type           LPS      LPS  days hr:min    10^6 ltr    10^6 ltr     Percent
  -------------------------------------------------------------------------------------------------
  HS02004478           JUNCTION      0.00  2194.28     0  01:53           0        5.86      -0.020
  HS02004479           JUNCTION      0.00   460.07     0  01:49           0       0.675       0.124
  HS02004480           JUNCTION      0.00  2187.31     0  01:49           0         4.6       0.059
  HS02004770           JUNCTION    823.45   894.65     0  01:48         1.4        1.61       0.188
  HS02004777           JUNCTION      0.03   898.98     0  01:48    0.000864        1.41       0.365
  HS02004785           JUNCTION      0.15   896.34     0  01:48     0.00432         1.4       0.009
  HS02004788           JUNCTION    301.41   877.90     0  01:49       0.571        1.97      -0.012
  HS02004792           JUNCTION    974.89  1666.47     0  01:51        1.79        3.75       0.011
  HS02004799           JUNCTION    210.73  1765.26     0  01:49        0.32        3.94       0.071
  HS02004802           JUNCTION      0.00   430.77     0  01:53           0        1.29       0.306
  HS02004807           JUNCTION    267.90   520.21     0  01:49       0.392        1.34       0.322
  HS02004817           JUNCTION      0.60   519.09     0  01:49      0.0173        1.02       1.661
  HS02004824           JUNCTION    299.68   754.79     0  01:49        0.69         1.2       0.032
  HS02004830           JUNCTION      0.15   751.99     0  01:49     0.00432       0.712       0.159
  HS02004837           JUNCTION    241.87   993.52     0  01:49       0.555       0.949       0.093
  HS02004842           JUNCTION      0.00   953.95     0  01:49           0       0.635       2.078
  HS02004848           JUNCTION    267.81  1180.36     0  01:49        0.63        1.12      -0.003
  HS02004852           JUNCTION      0.00  1124.92     0  01:50           0       0.998       0.022
  HS02004856           JUNCTION    107.43  1188.42     0  01:51       0.162        1.16       0.124
  HS02004862           JUNCTION    127.13  1259.94     0  01:51       0.272        1.43      -0.011
  HS02004870           JUNCTION    144.25  1397.22     0  01:51       0.215        1.64      -0.025
  HS02004876           JUNCTION    135.36  1468.30     0  01:51       0.222        1.87       0.032
  HS02004881           JUNCTION     79.66  1457.74     0  01:51       0.113        1.98       0.008
  HS02004901           JUNCTION    204.99   405.52     0  01:56       0.317       0.406       0.468
  WS02001211           JUNCTION      7.35   303.26     0  01:52       0.212        5.45       0.611
  WS02001212           JUNCTION      0.00   304.49     0  01:50           0        5.42       0.290
  WS02001213           JUNCTION      0.00   289.31     0  01:55           0        5.41       0.328
  WS02003059           JUNCTION      0.00   293.97     0  01:49           0        5.41       0.591
  WS02003060           JUNCTION     16.53  1514.19     0  01:56       0.476        12.9       0.116
  WS02003066           JUNCTION      0.00  1261.37     0  01:51           0        7.05       0.021
  WS02003067           JUNCTION      0.00  1256.78     0  01:51           0        7.05       0.063
  WS02003069           JUNCTION      0.32  1481.51     0  01:56     0.00922        12.9       0.121
  WS02003072           JUNCTION      0.00  1473.86     0  01:57           0        12.8       0.164
  WS02003073           JUNCTION      1.82  1471.46     0  01:58      0.0524        12.9       0.168
  WS02004138           JUNCTION      0.00   190.00     0  00:29           0        5.25       0.054
  WS02004139           JUNCTION      0.32   242.51     0  01:51     0.00924        5.26       0.507
  WS02004401           JUNCTION      0.00  1269.01     0  01:49           0        7.16       0.161
  WS02004402           JUNCTION      0.00  1269.88     0  01:49           0        7.15       0.157
  WS02004403           JUNCTION      0.00  1270.50     0  01:49           0        7.14       0.154
  WS02004404           JUNCTION      0.16  1271.52     0  01:49     0.00467        7.14       0.127
  WS02004405           JUNCTION      0.04  1272.44     0  01:49      0.0011        7.13       0.180
  WS02004406           JUNCTION      0.00  1272.71     0  01:49           0        7.12       0.305
  WS02004407           JUNCTION      0.00  1273.04     0  01:49           0        7.09       0.023
  WS02004409           JUNCTION      0.00  1256.79     0  01:51           0        7.09       0.044
  WS02004410           JUNCTION      0.00  1256.40     0  01:51           0        7.08       0.069
  WS02004411           JUNCTION      0.00  1257.04     0  01:51           0        7.08       0.086
  WS02004412           JUNCTION      0.00  1256.91     0  01:51           0        7.07       0.113
  WS02004413           JUNCTION      0.00  1256.66     0  01:51           0        7.06       0.194
  WS02006109           JUNCTION      1.23  1308.01     0  00:00      0.0354        6.95       0.171
  WS02006110           JUNCTION      0.00  1120.09     0  02:00           0        6.85      -0.512
  WS02006111           JUNCTION      0.00  1176.04     0  00:00           0        6.88      -0.549
  WS02006112           JUNCTION    166.67  2307.30     0  00:00       0.261        7.18      -0.004
  WS02006113           JUNCTION      0.00  1120.00     0  02:00           0        6.85      -0.658
  WS02006115           JUNCTION      0.00  2152.75     0  00:00           0        7.16       0.061
  WS02006116           JUNCTION      0.00  1267.99     0  01:49           0        7.16      -0.012
  WS02006228           JUNCTION      0.00  1233.80     0  01:53           0        6.89       0.092
  WS02006229           JUNCTION      0.00  2195.34     0  01:53           0        8.15       0.123
  WS02006230           JUNCTION     10.28   971.38     0  01:53       0.296        3.59       0.168
  WS02006231           JUNCTION      0.00   453.30     0  02:02           0        2.83      -0.170
  WS02006232           JUNCTION      0.00   453.26     0  01:57           0        2.84       0.176
  WS02006234           JUNCTION      0.00   453.11     0  02:02           0        2.83      -0.092
  WS02006235           JUNCTION      0.00   415.43     0  02:07           0        2.81       0.151
  WS02006238           JUNCTION      0.00   415.42     0  02:07           0         2.4      -0.107
  WS02006239           JUNCTION      0.00   414.94     0  02:07           0        2.39      -0.173
  WS02006240           JUNCTION      0.00   414.96     0  02:07           0         2.4       0.041
  WS02006242           JUNCTION      0.00   414.81     0  02:07           0         2.4       0.078
  WS02006243           JUNCTION      0.00   323.02     0  01:44           0        2.17       0.058
  WS02006245           JUNCTION      0.00   334.10     0  01:44           0        2.18       0.288
  WS02006247           JUNCTION      0.00   357.26     0  01:44           0        2.18       0.052
  WS02006248           JUNCTION      0.00   376.36     0  01:44           0        2.34      -0.010
  WS02006249           JUNCTION      0.00  1324.92     0  01:51           0        3.88       0.154
  WS02006251           JUNCTION      0.08  1417.85     0  01:51     0.00222         3.9       0.023
  WS02006252           JUNCTION      0.00   294.96     0  01:51           0        1.89      -0.450
  WS02006253           JUNCTION     22.08  1414.40     0  01:51      0.0275        2.02      -0.002
  WS02006256           JUNCTION      0.00   300.00     0  01:50           0        0.91       0.047
  WS02006280           JUNCTION      0.00  2194.64     0  01:53           0        5.84       0.010
  WS02006284           JUNCTION      0.10  2194.40     0  01:53     0.00275        5.84       0.020
  WS02006287           JUNCTION      0.00  2194.43     0  01:53           0        5.84       0.013
  WSF200               JUNCTION      0.00  1261.48     0  01:51           0        7.05       0.010
  YS02001580           JUNCTION      0.00   215.37     0  01:49           0     0.00449      -2.683
  YS02001583           JUNCTION      0.00   249.47     0  01:49           0      0.0141     -14.298
  YS02001586           JUNCTION    344.89   344.90     0  01:54       0.878        0.89       0.197
  YS02001590           JUNCTION      0.00   317.88     0  01:56           0       0.865      -0.024
  YS02001593           JUNCTION      0.00   317.69     0  01:57           0       0.865       0.020
  YS02001596           JUNCTION      0.00   317.72     0  01:57           0       0.865       0.007
  YS02001600           JUNCTION      0.00   317.79     0  01:56           0       0.865       0.013
  YS02001601           JUNCTION    674.73   991.84     0  01:52        1.27        2.13       0.050
  YS02001602           JUNCTION      0.00   586.44     0  01:49           0         1.7       0.028
  YS02001605           JUNCTION      0.00   586.44     0  01:49           0        1.66       0.026
  YS02001607           JUNCTION      0.00   586.02     0  01:49           0        1.66       0.106
  YS02001610           JUNCTION      0.00   556.18     0  01:49           0        1.65       0.134
  YS02001613           JUNCTION      0.00   525.83     0  01:49           0        1.59       0.108
  YS02001616           JUNCTION      0.00   513.85     0  02:09           0        1.59       0.012
  YS02001619           JUNCTION    604.38   906.18     0  01:50        1.39        2.98       0.001
  YS02001622           JUNCTION      0.00   906.78     0  01:50           0        2.98       0.006
  YS02001625           JUNCTION      0.00   906.70     0  01:50           0        2.98       0.302
  YS02001629           JUNCTION      0.00   906.69     0  01:50           0        2.89       0.018
  YS02001633           JUNCTION    495.24  1388.00     0  01:51       0.913         3.8       0.092
  YS02001641           JUNCTION      0.00  1389.23     0  01:50           0         3.8       0.077
  YS02001644           JUNCTION    447.64  1830.07     0  01:50       0.786        4.58       0.076
  YS02001647           JUNCTION      0.00  1830.62     0  01:50           0        4.57       0.007
  YS02001649           JUNCTION      0.00  2127.07     0  01:51           0        5.27       0.010
  YS02001652           JUNCTION      0.00   533.17     0  01:55           0       0.702      -0.270
  YS02001655           JUNCTION      0.15   726.43     0  01:52     0.00443       0.703       0.067
  YS02001658           JUNCTION      0.00   656.12     0  01:55           0       0.699      -0.007
  YS02001661           JUNCTION      0.00   438.36     0  01:51           0       0.698       0.045
  YS02001664           JUNCTION    438.70   438.70     0  01:51       0.698       0.698      -0.004
  YS02001745           JUNCTION    301.02   301.02     0  01:51       0.437       0.437       0.157
  YS02001748           JUNCTION      0.04   359.29     0  01:54      0.0013       0.438      -0.178
  YS02001751           JUNCTION      0.01   506.00     0  01:54    0.000317        0.44       0.179
  YS02001754           JUNCTION      0.26   349.78     0  01:56     0.00749       0.449      -0.338
  YS02001757           JUNCTION      0.00  3006.74     0  01:54           0        7.27      -0.016
  YS02001759           JUNCTION    411.67   999.63     0  01:52       0.599        1.54      -0.008
  YS02001762           JUNCTION      0.00   600.91     0  01:52           0       0.942       0.019
  YS02001765           JUNCTION      0.00   598.39     0  01:52           0       0.942       0.010
  YS02001767           JUNCTION      0.54   595.73     0  01:52      0.0154       0.942       0.016
  YS02001770           JUNCTION    572.92   591.33     0  01:52       0.928       0.969      -0.012
  YS02001774           JUNCTION      0.00   330.99     0  01:52           0      0.0609       1.947
  YS02001779           JUNCTION      0.01   337.57     0  01:52    0.000144      0.0192      -2.775
  YS02001783           JUNCTION      0.00  1147.85     0  01:52           0        2.77       0.009
  YS02001784           JUNCTION      1.06  1149.26     0  01:52      0.0305        2.81       0.019
  YS02001786           JUNCTION      0.06  1149.19     0  01:52     0.00162        2.81       0.021
  YS02001788           JUNCTION      0.07  1150.34     0  01:52     0.00204        2.81       0.010
  YS02001790           JUNCTION      0.15  1161.68     0  01:54     0.00446        2.81       0.015
  YS02001791           JUNCTION      0.00  1272.10     0  01:53           0        2.81      -0.004
  YS02001793           JUNCTION      0.00  1237.63     0  01:53           0        2.81       0.016
  YS02001882           JUNCTION      0.00    83.17     0  01:49           0      0.0127       3.347
  YS02001884           JUNCTION      0.00   133.88     0  01:49           0      0.0484       5.134
  YS02001887           JUNCTION    472.22   512.66     0  01:50       0.641       0.675       0.681
  YS02001890           JUNCTION      0.00   524.62     0  01:50           0       0.634       0.798
  YS02001895           JUNCTION      0.00   531.15     0  01:50           0       0.629       0.205
  YS02001898           JUNCTION      0.00   514.59     0  01:50           0       0.628       0.032
  YS02001901           JUNCTION      0.00   531.28     0  01:50           0        0.63       0.506
  YS02001904           JUNCTION      0.00   537.80     0  01:50           0       0.636       0.468
  YS02001907           JUNCTION      0.00  1341.64     0  01:52           0        2.06       0.877
  YS02001910           JUNCTION      0.00   923.97     0  01:52           0        1.43       0.514
  YS02001915           JUNCTION    487.64   924.05     0  01:52       0.881        1.48       0.110
  YS02001918           JUNCTION      0.00   513.12     0  01:50           0       0.627       0.021
  YS02001920           JUNCTION      2.87   437.74     0  01:52      0.0827       0.602       0.162
  YS02001923           JUNCTION      0.04   453.84     0  01:50     0.00109       0.503      -0.145
  YS02001926           JUNCTION      0.05   850.21     0  01:51      0.0015       0.482       0.022
  YS02001929           JUNCTION    228.10   563.93     0  01:51       0.464       0.468      -0.057
  YS02006553           JUNCTION      0.00   786.83     0  02:01           0        1.89       0.628
  YS02006556           JUNCTION      0.00   786.41     0  02:01           0         1.9       0.440
  YS02006558           JUNCTION    588.03  1148.94     0  01:52       0.932        2.81       0.130
  YS02006561           JUNCTION      0.00  1148.37     0  01:52           0        2.77      -0.002
  YS02163301           JUNCTION      0.00   906.44     0  01:50           0        2.89       0.053
  YS02163601           JUNCTION      0.11  1387.61     0  01:51     0.00317         3.8       0.131
  YS02164001           JUNCTION      0.00  1388.40     0  01:50           0         3.8       0.069
  YSB1154              JUNCTION    236.57   236.57     0  01:51       0.383       0.384       0.381
  YSB1171              JUNCTION      0.00   456.63     0  01:51           0       0.681       0.950
  YSB1174              JUNCTION    219.46   219.46     0  01:50        0.29       0.291       0.448
  YSB6556              JUNCTION      0.00   237.57     0  01:51           0       0.385       0.338
  CC-1                 OUTFALL       0.00   683.00     0  00:05           0        3.41       0.000
  CC-2                 OUTFALL       0.00   683.00     0  00:05           0        4.89       0.000
  JK-1                 OUTFALL       0.00  1000.00     0  00:05           0        1.81       0.000
  JK-2                 OUTFALL       0.00  1000.00     0  01:50           0        1.74       0.000
  WSC                  OUTFALL       0.00  1470.00     0  01:58           0        12.9       0.000
  CC-storage           STORAGE       0.00  3007.33     0  01:54           0         9.5      -6.875
  JK-storage           STORAGE       0.00  1283.84     0  01:53           0        2.96     -33.612
  XR-storage           STORAGE     200.00   200.00     0  00:00        5.76        6.36       0.001
  
  
  **********************
  Node Surcharge Summary
  **********************
  
  Surcharging occurs when water rises above the top of the highest conduit.
  ---------------------------------------------------------------------
                                               Max. Height   Min. Depth
                                   Hours       Above Crown    Below Rim
  Node                 Type      Surcharged         Meters       Meters
  ---------------------------------------------------------------------
  HS02004478           JUNCTION        0.24          0.625        0.315
  HS02004479           JUNCTION        0.35          0.893        0.157
  HS02004480           JUNCTION        0.38          0.956        0.144
  HS02004770           JUNCTION        0.32          0.720        0.000
  HS02004777           JUNCTION        0.32          0.780        0.000
  HS02004785           JUNCTION        0.27          0.790        0.000
  HS02004788           JUNCTION        0.26          0.720        0.000
  HS02004792           JUNCTION        0.35          0.900        0.000
  HS02004799           JUNCTION        0.44          1.060        0.000
  HS02004802           JUNCTION        0.39          1.030        0.180
  HS02004807           JUNCTION        0.37          1.129        0.091
  HS02004817           JUNCTION        0.80          1.561        0.179
  HS02004824           JUNCTION        0.26          1.131        0.179
  HS02004830           JUNCTION        0.24          1.220        0.110
  HS02004837           JUNCTION        0.20          1.340        0.000
  HS02004842           JUNCTION        0.31          1.520        0.000
  HS02004848           JUNCTION        0.17          1.370        0.000
  HS02004852           JUNCTION        0.19          1.420        0.000
  HS02004856           JUNCTION        0.16          1.300        0.000
  HS02004862           JUNCTION        0.20          1.300        0.000
  HS02004870           JUNCTION        0.21          1.400        0.000
  HS02004876           JUNCTION        0.27          1.553        0.007
  HS02004881           JUNCTION        0.24          1.416        0.034
  HS02004901           JUNCTION        0.32          0.720        0.000
  WS02004401           JUNCTION        1.32          1.053        0.607
  WS02004402           JUNCTION        1.34          1.048        0.692
  WS02004403           JUNCTION        1.35          0.994        1.036
  WS02004404           JUNCTION        1.43          0.987        1.793
  WS02004405           JUNCTION        1.42          0.894        1.906
  WS02004406           JUNCTION        1.40          0.594        1.856
  WS02004409           JUNCTION        0.61          0.340        2.020
  WS02004410           JUNCTION        0.54          0.278        2.262
  WS02004411           JUNCTION        0.51          0.179        2.351
  WS02004412           JUNCTION        0.45          0.213        2.097
  WS02004413           JUNCTION        0.84          0.163        2.037
  WS02006109           JUNCTION        1.76          1.820        0.000
  WS02006110           JUNCTION        1.55          1.682        0.168
  WS02006111           JUNCTION        0.82          1.211        0.659
  WS02006112           JUNCTION        1.63          1.680        0.000
  WS02006113           JUNCTION        0.83          1.389        0.541
  WS02006115           JUNCTION        1.21          1.136        1.114
  WS02006116           JUNCTION        1.23          1.069        1.221
  WS02006228           JUNCTION        1.76          2.191        0.009
  WS02006229           JUNCTION        0.53          1.033        0.037
  WS02006230           JUNCTION        1.44          1.570        0.000
  WS02006231           JUNCTION        1.48          1.486        0.044
  WS02006232           JUNCTION        1.68          1.480        0.000
  WS02006234           JUNCTION        1.55          1.240        0.000
  WS02006235           JUNCTION        1.59          1.254        0.036
  WS02006238           JUNCTION        1.61          1.257        0.173
  WS02006239           JUNCTION        1.55          1.222        0.068
  WS02006240           JUNCTION        1.52          1.390        0.000
  WS02006242           JUNCTION        1.56          0.820        0.000
  WS02006243           JUNCTION        1.46          0.770        0.000
  WS02006245           JUNCTION        1.43          0.850        0.000
  WS02006247           JUNCTION        1.44          0.760        0.000
  WS02006248           JUNCTION        1.38          0.380        0.000
  WS02006249           JUNCTION        1.40          0.390        0.000
  WS02006251           JUNCTION        1.16          1.180        0.000
  WS02006252           JUNCTION        1.28          1.100        0.000
  WS02006253           JUNCTION        1.19          2.178        0.302
  WS02006256           JUNCTION        7.31          2.050        0.000
  WS02006280           JUNCTION        0.46          0.683        0.097
  WS02006284           JUNCTION        0.40          0.652        0.148
  WS02006287           JUNCTION        0.33          0.709        0.181
  YS02001580           JUNCTION        0.28          0.450        0.000
  YS02001583           JUNCTION        0.28          0.500        0.000
  YS02001586           JUNCTION        0.41          0.510        0.000
  YS02001590           JUNCTION        0.48          0.750        0.000
  YS02001593           JUNCTION        0.47          0.774        0.066
  YS02001596           JUNCTION        0.56          1.015        0.055
  YS02001600           JUNCTION        0.67          1.190        0.000
  YS02001601           JUNCTION        0.98          1.440        0.000
  YS02001602           JUNCTION        0.87          1.270        0.000
  YS02001605           JUNCTION        0.82          1.180        0.000
  YS02001607           JUNCTION        0.41          0.659        0.021
  YS02001610           JUNCTION        0.43          0.680        0.000
  YS02001613           JUNCTION        0.40          0.700        0.000
  YS02001616           JUNCTION        0.36          0.610        0.000
  YS02001619           JUNCTION        0.35          0.610        0.000
  YS02001622           JUNCTION        0.34          0.580        0.040
  YS02001625           JUNCTION        0.51          0.780        0.000
  YS02001629           JUNCTION        0.25          0.470        0.000
  YS02001633           JUNCTION        0.52          1.031        0.029
  YS02001641           JUNCTION        0.42          0.966        0.134
  YS02001644           JUNCTION        0.37          0.920        0.000
  YS02001647           JUNCTION        0.17          0.728        0.172
  YS02001649           JUNCTION        0.20          0.928        0.122
  YS02001652           JUNCTION        0.11          0.981        0.149
  YS02001655           JUNCTION        0.04          1.200        0.000
  YS02001754           JUNCTION        0.04          0.245        0.905
  YS02001757           JUNCTION        0.18          0.598        0.612
  YS02001759           JUNCTION        0.15          0.575        0.635
  YS02001762           JUNCTION        0.14          0.720        0.430
  YS02001765           JUNCTION        0.13          0.775        0.325
  YS02001767           JUNCTION        0.12          0.800        0.230
  YS02001770           JUNCTION        0.11          0.837        0.083
  YS02001774           JUNCTION        0.15          0.943        0.107
  YS02001779           JUNCTION        0.07          0.680        0.000
  YS02001783           JUNCTION        0.32          0.467        1.133
  YS02001784           JUNCTION        0.30          0.341        1.149
  YS02001786           JUNCTION        0.21          0.094        1.336
  YS02001882           JUNCTION        0.28          0.830        0.000
  YS02001884           JUNCTION        0.28          0.794        0.076
  YS02001887           JUNCTION        0.31          0.770        0.180
  YS02001890           JUNCTION        0.33          0.760        0.000
  YS02001895           JUNCTION        0.27          0.599        0.151
  YS02001898           JUNCTION        0.26          0.598        0.142
  YS02001901           JUNCTION        0.30          0.692        0.178
  YS02001904           JUNCTION        0.30          0.650        0.200
  YS02001907           JUNCTION        0.47          0.950        0.000
  YS02001910           JUNCTION        0.35          0.976        0.124
  YS02001915           JUNCTION        0.27          0.920        0.080
  YS02001918           JUNCTION        0.20          0.810        0.000
  YS02001920           JUNCTION        0.21          1.140        0.000
  YS02001923           JUNCTION        0.01          0.820        0.000
  YS02001926           JUNCTION        0.01          0.900        0.000
  YS02001929           JUNCTION        0.01          0.780        0.000
  YS02006553           JUNCTION        0.49          0.976        0.214
  YS02006556           JUNCTION        0.41          0.909        0.441
  YS02006558           JUNCTION        0.40          0.888        0.512
  YS02006561           JUNCTION        0.16          0.166        0.984
  YS02163301           JUNCTION        0.50          0.938        0.092
  YS02163601           JUNCTION        0.54          1.080        0.000
  YS02164001           JUNCTION        0.44          0.999        0.101
  YSB1154              JUNCTION        0.52          1.219        0.181
  YSB1171              JUNCTION        0.53          1.100        0.000
  YSB1174              JUNCTION        0.47          1.133        0.117
  YSB6556              JUNCTION        0.42          1.073        0.027
  
  
  *********************
  Node Flooding Summary
  *********************
  
  Flooding refers to all water that overflows a node, whether it ponds or not.
  --------------------------------------------------------------------------
                                                             Total   Maximum
                                 Maximum   Time of Max       Flood    Ponded
                        Hours       Rate    Occurrence      Volume     Depth
  Node                 Flooded       LPS   days hr:min    10^6 ltr    Meters
  --------------------------------------------------------------------------
  HS02004770              0.13    431.76      0  01:50       0.114     0.000
  HS02004777              0.01     75.19      0  01:49       0.001     0.000
  HS02004785              0.01    366.46      0  01:48       0.002     0.000
  HS02004788              0.01    458.63      0  01:48       0.006     0.000
  HS02004792              0.14    428.84      0  01:52       0.129     0.000
  HS02004799              0.01     60.70      0  01:51       0.001     0.000
  HS02004837              0.01     34.55      0  01:51       0.000     0.000
  HS02004842              0.01     85.92      0  01:51       0.001     0.000
  HS02004848              0.01     46.03      0  01:51       0.000     0.000
  HS02004852              0.01    167.06      0  01:51       0.000     0.000
  HS02004856              0.01     33.23      0  01:51       0.000     0.000
  HS02004862              0.01     87.58      0  01:51       0.001     0.000
  HS02004870              0.01      9.15      0  01:51       0.000     0.000
  HS02004901              0.20    405.52      0  01:56       0.196     0.000
  WS02006109              0.19    146.48      0  01:52       0.059     0.000
  WS02006112              0.01   1153.65      0  00:00       0.035     0.000
  WS02006230              0.41    518.55      0  01:53       0.458     0.000
  WS02006232              0.10      1.02      0  01:47       0.000     0.000
  WS02006234              0.44    128.40      0  01:51       0.169     0.000
  WS02006240              0.01    132.69      0  01:43       0.000     0.000
  WS02006242              0.52    283.86      0  01:44       0.227     0.000
  WS02006243              0.01    212.58      0  01:44       0.000     0.000
  WS02006245              0.01     44.14      0  01:44       0.000     0.000
  WS02006247              0.01    194.89      0  01:44       0.000     0.000
  WS02006248              0.75    345.10      0  01:50       0.740     0.000
  WS02006249              1.12   1258.39      0  01:51       2.112     0.000
  WS02006251              0.01    237.45      0  01:45       0.000     0.000
  WS02006252              0.08    293.82      0  01:51       0.023     0.000
  WS02006256              0.58    291.45      0  01:50       0.352     0.000
  YS02001580              0.01    149.55      0  01:49       0.001     0.000
  YS02001583              0.01    150.29      0  01:49       0.000     0.000
  YS02001586              0.16    146.11      0  01:49       0.013     0.000
  YS02001590              0.01     24.47      0  01:48       0.000     0.000
  YS02001600              0.01      8.59      0  01:49       0.000     0.000
  YS02001601              0.35    593.94      0  01:52       0.437     0.000
  YS02001602              0.20     61.90      0  01:56       0.040     0.000
  YS02001605              0.01     11.76      0  01:49       0.000     0.000
  YS02001610              0.17    136.70      0  01:54       0.058     0.000
  YS02001613              0.01     67.94      0  01:49       0.000     0.000
  YS02001616              0.01     63.36      0  01:49       0.000     0.000
  YS02001619              0.01     64.19      0  01:49       0.000     0.000
  YS02001625              0.13    315.95      0  01:54       0.079     0.000
  YS02001629              0.01    260.11      0  01:49       0.001     0.000
  YS02001644              0.01      8.77      0  01:52       0.000     0.000
  YS02001655              0.01    345.51      0  01:52       0.000     0.000
  YS02001779              0.01    274.26      0  01:52       0.001     0.000
  YS02001882              0.01     43.24      0  01:50       0.000     0.000
  YS02001890              0.01     18.86      0  01:50       0.000     0.000
  YS02001907              0.13    762.47      0  01:52       0.154     0.000
  YS02001918              0.01     77.92      0  01:52       0.001     0.000
  YS02001920              0.01     56.75      0  01:52       0.000     0.000
  YS02001923              0.01    241.43      0  01:52       0.000     0.000
  YS02001926              0.01    540.92      0  01:51       0.001     0.000
  YS02001929              0.01    314.51      0  01:52       0.001     0.000
  YS02163601              0.01      4.12      0  01:53       0.000     0.000
  YSB1171                 0.04     99.49      0  01:51       0.007     0.000
  
  
  **********************
  Storage Volume Summary
  **********************
  
  ------------------------------------------------------------------------------------------------
                         Average    Avg   Evap  Exfil     Maximum    Max    Time of Max    Maximum
                          Volume   Pcnt   Pcnt   Pcnt      Volume   Pcnt     Occurrence    Outflow
  Storage Unit           1000 m   Full   Loss   Loss     1000 m   Full    days hr:min        LPS
  ------------------------------------------------------------------------------------------------
  CC-storage               0.595    9.3    0.0    0.0       2.249   35.1       0  02:25    1566.00
  JK-storage               0.005    1.7    0.0    0.0       0.151   51.7       0  00:05    2300.00
  XR-storage               0.943   65.5    0.0    0.0       1.111   77.1       0  08:00     190.00
  
  
  ***********************
  Outfall Loading Summary
  ***********************
  
  -----------------------------------------------------------
                         Flow       Avg       Max       Total
                         Freq      Flow      Flow      Volume
  Outfall Node           Pcnt       LPS       LPS    10^6 ltr
  -----------------------------------------------------------
  CC-1                  32.06    524.36    683.00       3.410
  CC-2                  88.76    314.66    683.00       4.893
  JK-1                  82.48    109.88   1000.00       1.809
  JK-2                  49.76    164.01   1000.00       1.744
  WSC                   99.99    546.23   1470.00      12.851
  -----------------------------------------------------------
  System                70.61   1659.13   3987.93      24.707
  
  
  ********************
  Link Flow Summary
  ********************
  
  -----------------------------------------------------------------------------
                                 Maximum  Time of Max   Maximum    Max/    Max/
                                  |Flow|   Occurrence   |Veloc|    Full    Full
  Link                 Type          LPS  days hr:min     m/sec    Flow   Depth
  -----------------------------------------------------------------------------
  1                    CONDUIT   1470.00     0  01:58      3.68    0.51    0.51
  HS02004478WS02006287 CONDUIT   2194.43     0  01:53      2.60    0.61    1.00
  HS02004479HS02004480 CONDUIT    465.42     0  01:49      0.66    0.45    1.00
  HS02004480HS02004478 CONDUIT   2193.20     0  01:49      3.13    9.24    1.00
  HS02004770HS02004777 CONDUIT    898.95     0  01:48      1.28    1.64    1.00
  HS02004777HS02004785 CONDUIT    896.19     0  01:48      1.43    1.10    1.00
  HS02004785HS02004788 CONDUIT    624.36     0  02:00      1.35    4.71    1.00
  HS02004788HS02004792 CONDUIT    820.88     0  02:00      1.46    0.54    1.00
  HS02004792HS02004799 CONDUIT   1569.36     0  01:49      2.24    0.96    1.00
  HS02004799HS02004480 CONDUIT   1762.09     0  01:49      2.52    2.23    1.00
  HS02004802HS02004478 CONDUIT    430.59     0  01:53      0.70    0.38    1.00
  HS02004807HS02004802 CONDUIT    430.77     0  01:53      0.62    0.82    1.00
  HS02004817HS02004807 CONDUIT    518.49     0  01:49      0.74    0.31    1.00
  HS02004817HS02004824 CONDUIT    517.48     0  01:49      0.74    0.23    1.00
  HS02004824HS02004830 CONDUIT    751.84     0  01:49      1.09    0.98    1.00
  HS02004830HS02004837 CONDUIT    769.41     0  01:49      1.20    0.77    1.00
  HS02004837HS02004842 CONDUIT    953.95     0  01:49      1.36    0.57    1.00
  HS02004842HS02004848 CONDUIT    952.21     0  01:49      1.52    0.55    1.00
  HS02004848HS02004852 CONDUIT   1124.92     0  01:50      1.74    1.27    1.00
  HS02004852HS02004856 CONDUIT   1081.07     0  01:51      1.55    1.24    1.00
  HS02004856HS02004862 CONDUIT   1134.78     0  01:51      1.75    1.13    1.00
  HS02004862HS02004870 CONDUIT   1253.45     0  01:51      1.97    1.35    1.00
  HS02004870HS02004876 CONDUIT   1333.21     0  01:51      2.03    0.88    1.00
  HS02004876HS02004881 CONDUIT   1379.20     0  01:51      2.37   14.67    1.00
  HS02004881HS02006253 CONDUIT   1394.77     0  01:51      1.99    0.27    1.00
  HS02004901HS02004770 CONDUIT    253.88     0  01:56      0.36    0.96    1.00
  WS02001211WS02001212 CONDUIT    279.18     0  01:55      0.54    0.21    0.69
  WS02001212WS02001213 CONDUIT    289.31     0  01:55      1.04    0.45    0.58
  WS02001213WS02003059 CONDUIT    254.99     0  01:55      0.47    0.42    0.90
  WS02003059WS02003060 CONDUIT    270.97     0  01:56      0.66    0.18    0.81
  WS02003060WS02003069 CONDUIT   1481.19     0  01:56      2.09    0.58    0.60
  WS02003066WSF200     CONDUIT   1261.48     0  01:51      3.47    0.21    0.38
  WS02003067WS02003066 CONDUIT   1261.37     0  01:51      2.00    0.40    0.55
  WS02003069WS02003072 CONDUIT   1473.86     0  01:57      1.88    0.71    0.65
  WS02003072WS02003073 CONDUIT   1469.64     0  01:58      2.03    3.17    0.61
  WS02004138WS02004139 CONDUIT    190.00     0  00:32      2.17    0.04    0.42
  WS02004139WS02001211 CONDUIT    295.92     0  01:52      0.55    0.37    0.61
  WS02004401WS02004402 CONDUIT   1269.88     0  01:49      2.07    1.52    1.00
  WS02004402WS02004403 CONDUIT   1270.50     0  01:49      1.84    1.83    1.00
  WS02004403WS02004404 CONDUIT   1271.36     0  01:49      1.68    0.92    1.00
  WS02004404WS02004405 CONDUIT   1272.41     0  01:49      1.86   12.47    1.00
  WS02004405WS02004406 CONDUIT   1272.71     0  01:49      1.80    2.51    1.00
  WS02004406WS02004407 CONDUIT   1273.04     0  01:49      1.99    0.57    0.93
  WS02004407WS02004409 CONDUIT   1256.79     0  01:51      2.08    0.45    0.93
  WS02004409WS02004410 CONDUIT   1256.40     0  01:51      1.60    1.62    1.00
  WS02004410WS02004411 CONDUIT   1257.04     0  01:51      1.60    1.72    1.00
  WS02004411WS02004412 CONDUIT   1256.91     0  01:51      1.60    1.79    1.00
  WS02004412WS02004413 CONDUIT   1256.66     0  01:51      1.60    0.84    1.00
  WS02004413WS02003067 CONDUIT   1256.78     0  01:51      1.96    0.54    0.76
  WS02006109WS02006110 CONDUIT   1306.78     0  00:00      3.15    2.51    1.00
  WS02006110WS02006113 CONDUIT   1120.00     0  02:00      2.23    1.02    1.00
  WS02006111WS02006112 CONDUIT   2307.30     0  00:00      9.18    1.10    1.00
  WS02006112WS02006115 CONDUIT   2152.75     0  00:00      2.85    1.27    1.00
  WS02006113WS02006111 CONDUIT   1176.04     0  00:00      2.73    1.41    1.00
  WS02006115WS02006116 CONDUIT   1267.99     0  01:49      1.81    1.63    1.00
  WS02006116WS02004401 CONDUIT   1269.01     0  01:49      2.21    1.75    1.00
  WS02006228WS02006109 CONDUIT   1233.57     0  01:53      2.45    5.39    1.00
  WS02006229WS02006228 CONDUIT   1233.80     0  01:53      2.45    4.09    1.00
  WS02006230WS02006229 CONDUIT    961.10     0  01:53      2.50   21.39    1.00
  WS02006231WS02006230 CONDUIT    453.30     0  02:02      1.29    6.88    1.00
  WS02006232WS02006231 CONDUIT    453.26     0  01:57      1.18    0.95    1.00
  WS02006234WS02006232 CONDUIT    453.11     0  02:02      1.18    0.92    1.00
  WS02006235WS02006234 CONDUIT    413.59     0  02:57      1.07    4.36    1.00
  WS02006238WS02006235 CONDUIT    415.42     0  02:07      1.23    0.93    1.00
  WS02006239WS02006238 CONDUIT    414.94     0  02:07      1.08    1.33    1.00
  WS02006240WS02006239 CONDUIT    414.96     0  02:07      1.09    1.31    1.00
  WS02006242WS02006240 CONDUIT    414.81     0  02:07      1.08    1.65    1.00
  WS02006243WS02006242 CONDUIT    308.02     0  01:43      1.14    0.66    1.00
  WS02006245WS02006243 CONDUIT    323.02     0  01:44      1.14    0.96    1.00
  WS02006247WS02006245 CONDUIT    334.10     0  01:44      1.10    2.65    1.00
  WS02006248WS02006247 CONDUIT    357.26     0  01:44      1.17    0.78    1.00
  WS02006249WS02006248 CONDUIT    376.36     0  01:44      1.16    2.06    1.00
  WS02006251WS02006249 CONDUIT   1324.92     0  01:51      3.44    3.82    1.00
  WS02006252WS02006251 CONDUIT   1298.45     0  00:05     20.66    4.77    1.00
  WS02006253WS02006251 CONDUIT   1417.77     0  01:51      3.68    4.25    1.00
  WS02006256WS02006235 CONDUIT    173.64     0  02:49      2.46    1.84    1.00
  WS02006280WS02006229 CONDUIT   2195.34     0  01:53      4.34    0.47    1.00
  WS02006284WS02006280 CONDUIT   2194.64     0  01:53      3.02    0.92    1.00
  WS02006287WS02006284 CONDUIT   2194.30     0  01:53      2.79    1.02    1.00
  WSF200WS02003060     CONDUIT   1274.38     0  01:52      2.66    0.28    0.50
  YS02001580YS02001583 CONDUIT    215.37     0  01:49      0.98    0.83    1.00
  YS02001583YS02001586 CONDUIT    225.82     0  01:48      1.03    0.34    1.00
  YS02001586YS02001590 CONDUIT    317.88     0  01:56      1.30    0.56    1.00
  YS02001590YS02001593 CONDUIT    317.69     0  01:57      1.12    1.99    1.00
  YS02001593YS02001596 CONDUIT    317.72     0  01:57      1.71    0.50    1.00
  YS02001596YS02001600 CONDUIT    317.79     0  01:56      1.19    0.62    1.00
  YS02001600YS02001601 CONDUIT    317.77     0  01:56      1.12    0.55    1.00
  YS02001601YS02001602 CONDUIT    586.44     0  01:49      2.07    2.12    1.00
  YS02001602YS02001605 CONDUIT    586.44     0  01:49      2.07   12.41    1.00
  YS02001605YS02001607 CONDUIT    586.02     0  01:49      2.07    3.21    1.00
  YS02001607YS02001610 CONDUIT    556.18     0  01:49      0.75    0.53    1.00
  YS02001610YS02001613 CONDUIT    525.83     0  01:49      0.70    0.61    1.00
  YS02001613YS02001616 CONDUIT    513.85     0  02:09      0.69    0.44    1.00
  YS02001616YS02001619 CONDUIT    514.44     0  02:09      0.68    0.89    1.00
  YS02001619YS02001622 CONDUIT    906.78     0  01:50      1.35    1.34    1.00
  YS02001622YS02001625 CONDUIT    906.70     0  01:50      1.15    0.48    1.00
  YS02001625YS02001629 CONDUIT    906.69     0  01:50      1.15    0.43    1.00
  YS02001629YS02163301 CONDUIT    906.44     0  01:50      1.15    1.12    1.00
  YS02001633YS02163601 CONDUIT   1387.50     0  01:51      1.77    1.46    1.00
  YS02001641YS02001644 CONDUIT   1390.20     0  01:50      1.77    4.49    1.00
  YS02001644YS02001647 CONDUIT   1830.62     0  01:50      2.34    1.08    1.00
  YS02001647YS02001649 CONDUIT   1810.37     0  01:50      2.34    0.96    1.00
  YS02001649YS02001757 CONDUIT   2130.27     0  01:51      2.71    1.29    1.00
  YS02001652YS02001649 CONDUIT    533.92     0  01:55      0.85    0.26    1.00
  YS02001655YS02001652 CONDUIT    533.17     0  01:55      1.57    0.26    1.00
  YS02001658YS02001655 CONDUIT    726.28     0  01:52      2.08    0.31    0.94
  YS02001661YS02001658 CONDUIT    656.12     0  01:55      2.34    0.26    0.65
  YS02001664YS02001661 CONDUIT    438.36     0  01:51      2.20    0.14    0.41
  YS02001745YS02001748 CONDUIT    359.24     0  01:54      2.21    0.14    0.46
  YS02001748YS02001751 CONDUIT    505.99     0  01:54      1.85    0.26    0.82
  YS02001751YS02001754 CONDUIT    349.52     0  01:56      1.59    0.17    0.99
  YS02001754YS02001757 CONDUIT    398.86     0  01:56      0.57    0.16    1.00
  YS02001757CaochengTiaoxuchi CONDUIT   3007.33     0  01:54      6.81    1.30    0.70
  YS02001759YS02001757 CONDUIT   1002.39     0  01:52      1.28    0.71    1.00
  YS02001762YS02001759 CONDUIT    604.49     0  01:52      0.77    0.70    1.00
  YS02001765YS02001762 CONDUIT    600.91     0  01:52      0.77    0.56    1.00
  YS02001767YS02001765 CONDUIT    598.39     0  01:52      0.79    0.75    1.00
  YS02001770YS02001767 CONDUIT    595.20     0  01:52      0.87    2.36    1.00
  YS02001774YS02001770 CONDUIT    330.99     0  01:52      0.42    0.21    1.00
  YS02001779YS02001774 CONDUIT    337.57     0  01:52      0.44    0.17    1.00
  YS02001783YS02001784 CONDUIT   1148.20     0  01:52      2.28    1.58    1.00
  YS02001784YS02001785 CONDUIT   1149.14     0  01:52      2.29    2.67    1.00
  YS02001786YS02001788 CONDUIT   1150.27     0  01:52      2.47    2.22    0.89
  YS02001788YS02001790 CONDUIT   1161.53     0  01:54      2.71    0.86    0.83
  YS02001790YS02001791 CONDUIT   1272.10     0  01:53      3.41    1.38    0.70
  YS02001791YS02001793 CONDUIT   1237.63     0  01:53      6.50    0.53    0.43
  YS02001793JiankangQianchi CONDUIT   1283.84     0  01:53     24.97    0.10    0.60
  YS02001882YS02001884 CONDUIT     83.17     0  01:49      0.11    0.10    1.00
  YS02001884YS02001887 CONDUIT    133.88     0  01:49      0.17    0.18    1.00
  YS02001887YS02001890 CONDUIT    524.62     0  01:50      0.67    0.90    1.00
  YS02001890YS02001895 CONDUIT    531.15     0  01:50      0.68    0.25    1.00
  YS02001895YS02001898 CONDUIT    514.59     0  01:50      0.66    0.89    1.00
  YS02001898YS02001901 CONDUIT    531.28     0  01:50      0.68    0.34    1.00
  YS02001901YS02001904 CONDUIT    537.80     0  01:50      0.68    0.83    1.00
  YS02001904YS02001907 CONDUIT    548.38     0  01:50      0.70    0.19    1.00
  YS02001907YS02006553 CONDUIT    786.83     0  02:01      0.87    0.93    1.00
  YS02001910YS02001907 CONDUIT    924.10     0  01:52      1.18    0.52    1.00
  YS02001915YS02001910 CONDUIT    923.97     0  01:52      1.18    0.46    1.00
  YS02001918YS02001915 CONDUIT    513.12     0  01:50      0.71    0.28    1.00
  YS02001920YS02001918 CONDUIT    437.67     0  01:52      0.66    0.42    1.00
  YS02001923YS02001920 CONDUIT    434.87     0  01:52      0.81    0.20    1.00
  YS02001926YS02001923 CONDUIT    485.90     0  01:51      0.98    0.69    1.00
  YS02001929YS02001926 CONDUIT    477.53     0  01:51      1.14    0.23    1.00
  YS02006553YS02006556 CONDUIT    786.41     0  02:01      1.00    0.67    1.00
  YS02006556YS02006558 CONDUIT    786.86     0  02:01      1.00    0.62    1.00
  YS02006558YS02006561 CONDUIT   1148.37     0  01:52      4.06    2.54    1.00
  YS02006561YS02001783 CONDUIT   1147.85     0  01:52      2.28    0.59    1.00
  YS02163301YS02001633 CONDUIT    905.90     0  02:05      1.15    0.85    1.00
  YS02163601YS02164001 CONDUIT   1388.40     0  01:50      1.77    1.23    1.00
  YS02164001YS02001641 CONDUIT   1389.23     0  01:50      1.77    1.90    1.00
  YSB1154YSB6556       CONDUIT    237.57     0  01:51      0.62    0.43    1.00
  YSB1171HS02004479    CONDUIT    460.07     0  01:49      0.92    0.31    1.00
  YSB1174YSB1171       CONDUIT    221.07     0  01:50      0.57    0.34    1.00
  YSB6556YSB1171       CONDUIT    241.05     0  01:51      0.63    0.25    1.00
  CC-R1                PUMP       683.00     0  00:05              1.00
  CC-R2                PUMP       683.00     0  00:05              1.00
  CC-S1                PUMP       200.00     0  01:40              1.00
  CC-S2                PUMP       200.00     0  00:05              1.00
  JK-R1                PUMP      1000.00     0  00:05              1.00
  JK-R2                PUMP      1000.00     0  01:50              1.00
  JK-S                 PUMP       300.00     0  01:50              1.00
  XR-1                 PUMP        95.00     0  00:10              1.00
  XR-2                 PUMP        95.00     0  00:29              1.00
  XR-3                 PUMP         0.00     0  00:00              0.00
  XR-4                 PUMP         0.00     0  00:00              0.00
  
  
  ***************************
  Flow Classification Summary
  ***************************
  
  -------------------------------------------------------------------------------------
                      Adjusted    ---------- Fraction of Time in Flow Class ---------- 
                       /Actual         Up    Down  Sub   Sup   Up    Down  Norm  Inlet 
  Conduit               Length    Dry  Dry   Dry   Crit  Crit  Crit  Crit  Ltd   Ctrl  
  -------------------------------------------------------------------------------------
  1                       1.00   0.00  0.00  0.00  0.00  1.00  0.00  0.00  0.50  0.00
  HS02004478WS02006287    1.00   0.17  0.00  0.00  0.67  0.16  0.00  0.00  0.63  0.00
  HS02004479HS02004480    1.00   0.04  0.00  0.00  0.96  0.00  0.00  0.00  0.12  0.00
  HS02004480HS02004478    1.00   0.13  0.00  0.00  0.61  0.00  0.00  0.26  0.00  0.00
  HS02004770HS02004777    1.00   0.00  0.13  0.00  0.87  0.00  0.00  0.00  0.04  0.00
  HS02004777HS02004785    1.00   0.00  0.00  0.00  1.00  0.00  0.00  0.00  0.14  0.00
  HS02004785HS02004788    1.00   0.00  0.00  0.00  1.00  0.00  0.00  0.00  0.00  0.00
  HS02004788HS02004792    1.00   0.00  0.00  0.00  0.99  0.01  0.00  0.00  0.94  0.00
  HS02004792HS02004799    1.00   0.00  0.00  0.00  0.99  0.01  0.00  0.00  0.91  0.00
  HS02004799HS02004480    1.00   0.00  0.03  0.00  0.83  0.00  0.13  0.00  0.00  0.00
  HS02004802HS02004478    1.00   0.13  0.01  0.00  0.86  0.00  0.00  0.00  0.03  0.00
  HS02004807HS02004802    1.00   0.13  0.00  0.00  0.85  0.00  0.00  0.02  0.00  0.00
  HS02004817HS02004807    1.00   0.00  0.13  0.00  0.87  0.00  0.00  0.00  0.01  0.00
  HS02004817HS02004824    1.00   0.00  0.00  0.00  1.00  0.00  0.00  0.00  0.88  0.00
  HS02004824HS02004830    1.00   0.00  0.00  0.00  1.00  0.00  0.00  0.00  0.01  0.00
  HS02004830HS02004837    1.00   0.00  0.00  0.00  1.00  0.00  0.00  0.00  0.92  0.00
  HS02004837HS02004842    1.00   0.00  0.00  0.00  0.99  0.01  0.00  0.00  0.11  0.00
  HS02004842HS02004848    1.00   0.00  0.13  0.00  0.87  0.00  0.00  0.00  0.60  0.00
  HS02004848HS02004852    1.00   0.13  0.00  0.00  0.87  0.00  0.00  0.00  0.72  0.00
  HS02004852HS02004856    1.00   0.13  0.02  0.00  0.86  0.00  0.00  0.00  0.73  0.00
  HS02004856HS02004862    1.00   0.00  0.19  0.00  0.81  0.00  0.00  0.00  0.76  0.00
  HS02004862HS02004870    1.00   0.00  0.00  0.00  1.00  0.00  0.00  0.00  0.04  0.00
  HS02004870HS02004876    1.00   0.00  0.00  0.00  1.00  0.00  0.00  0.00  0.90  0.00
  HS02004876HS02004881    1.00   0.01  0.00  0.00  0.86  0.13  0.00  0.00  0.00  0.00
  HS02004881HS02006253    1.00   0.03  0.02  0.00  0.25  0.01  0.00  0.69  0.21  0.00
  HS02004901HS02004770    1.00   0.13  0.00  0.00  0.87  0.00  0.00  0.00  0.01  0.00
  WS02001211WS02001212    1.00   0.00  0.02  0.00  0.98  0.00  0.00  0.00  0.00  0.00
  WS02001212WS02001213    1.00   0.02  0.00  0.00  0.26  0.00  0.71  0.00  0.00  0.00
  WS02001213WS02003059    1.00   0.00  0.01  0.00  0.99  0.00  0.00  0.00  0.00  0.00
  WS02003059WS02003060    1.00   0.00  0.00  0.00  1.00  0.00  0.00  0.00  0.03  0.00
  WS02003060WS02003069    1.00   0.00  0.00  0.00  0.97  0.03  0.00  0.00  0.48  0.00
  WS02003066WSF200        1.00   0.06  0.00  0.00  0.00  0.94  0.00  0.00  0.73  0.00
  WS02003067WS02003066    1.00   0.05  0.01  0.00  0.94  0.00  0.00  0.00  0.00  0.00
  WS02003069WS02003072    1.00   0.00  0.00  0.00  0.99  0.01  0.00  0.00  0.69  0.00
  WS02003072WS02003073    1.00   0.00  0.00  0.00  0.00  0.00  0.00  1.00  0.00  0.00
  WS02004138WS02004139    1.00   0.02  0.00  0.00  0.97  0.01  0.00  0.00  0.98  0.00
  WS02004139WS02001211    1.00   0.00  0.01  0.00  0.99  0.00  0.00  0.00  0.00  0.00
  WS02004401WS02004402    1.00   0.00  0.00  0.00  1.00  0.00  0.00  0.00  0.00  0.00
  WS02004402WS02004403    1.00   0.00  0.00  0.00  1.00  0.00  0.00  0.00  0.00  0.00
  WS02004403WS02004404    1.00   0.00  0.00  0.00  1.00  0.00  0.00  0.00  0.00  0.00
  WS02004404WS02004405    1.00   0.00  0.00  0.00  1.00  0.00  0.00  0.00  0.01  0.00
  WS02004405WS02004406    1.00   0.00  0.00  0.00  1.00  0.00  0.00  0.00  0.00  0.00
  WS02004406WS02004407    1.00   0.00  0.01  0.00  0.99  0.00  0.00  0.00  0.01  0.00
  WS02004407WS02004409    1.00   0.01  0.00  0.00  0.98  0.01  0.00  0.00  0.90  0.00
  WS02004409WS02004410    1.00   0.01  0.00  0.00  0.99  0.00  0.00  0.00  0.00  0.00
  WS02004410WS02004411    1.00   0.01  0.00  0.00  0.99  0.00  0.00  0.00  0.01  0.00
  WS02004411WS02004412    1.00   0.01  0.00  0.00  0.99  0.00  0.00  0.00  0.00  0.00
  WS02004412WS02004413    1.00   0.01  0.00  0.00  0.99  0.00  0.00  0.00  0.02  0.00
  WS02004413WS02003067    1.00   0.01  0.04  0.00  0.00  0.00  0.95  0.00  0.00  0.00
  WS02006109WS02006110    1.00   0.00  0.00  0.00  1.00  0.00  0.00  0.00  0.00  0.00
  WS02006110WS02006113    1.00   0.00  0.00  0.00  1.00  0.00  0.00  0.00  0.00  0.00
  WS02006111WS02006112    1.00   0.00  0.00  0.00  1.00  0.00  0.00  0.00  0.82  0.00
  WS02006112WS02006115    1.00   0.00  0.00  0.00  1.00  0.00  0.00  0.00  0.00  0.00
  WS02006113WS02006111    1.00   0.00  0.00  0.00  0.16  0.84  0.00  0.00  0.05  0.00
  WS02006115WS02006116    1.00   0.00  0.00  0.00  1.00  0.00  0.00  0.00  0.00  0.00
  WS02006116WS02004401    1.00   0.00  0.00  0.00  1.00  0.00  0.00  0.00  0.00  0.00
  WS02006228WS02006109    1.00   0.00  0.00  0.00  1.00  0.00  0.00  0.00  0.00  0.00
  WS02006229WS02006228    1.00   0.00  0.00  0.00  1.00  0.00  0.00  0.00  0.00  0.00
  WS02006230WS02006229    1.00   0.00  0.00  0.00  1.00  0.00  0.00  0.00  0.00  0.00
  WS02006231WS02006230    1.00   0.00  0.00  0.00  0.25  0.00  0.74  0.00  0.00  0.00
  WS02006232WS02006231    1.00   0.00  0.00  0.00  0.99  0.00  0.00  0.00  0.01  0.00
  WS02006234WS02006232    1.00   0.00  0.01  0.00  0.99  0.00  0.00  0.00  0.05  0.00
  WS02006235WS02006234    1.00   0.02  0.00  0.00  0.83  0.00  0.15  0.00  0.00  0.00
  WS02006238WS02006235    1.00   0.02  0.00  0.00  0.98  0.00  0.00  0.00  0.00  0.00
  WS02006239WS02006238    1.00   0.02  0.00  0.00  0.98  0.00  0.00  0.00  0.11  0.00
  WS02006240WS02006239    1.00   0.02  0.00  0.00  0.56  0.00  0.00  0.42  0.03  0.00
  WS02006242WS02006240    1.00   0.01  0.00  0.00  0.98  0.00  0.01  0.00  0.00  0.00
  WS02006243WS02006242    1.00   0.01  0.00  0.00  0.98  0.00  0.00  0.01  0.65  0.00
  WS02006245WS02006243    1.00   0.01  0.00  0.00  0.86  0.00  0.00  0.13  0.00  0.00
  WS02006247WS02006245    1.00   0.01  0.00  0.00  0.98  0.00  0.00  0.01  0.00  0.00
  WS02006248WS02006247    1.00   0.01  0.00  0.00  0.98  0.00  0.00  0.01  0.61  0.00
  WS02006249WS02006248    1.00   0.00  0.01  0.00  0.39  0.00  0.60  0.00  0.00  0.00
  WS02006251WS02006249    1.00   0.00  0.00  0.00  1.00  0.00  0.00  0.00  0.58  0.00
  WS02006252WS02006251    1.00   0.01  0.04  0.00  0.16  0.00  0.78  0.00  0.00  0.00
  WS02006253WS02006251    1.00   0.01  0.00  0.00  0.99  0.00  0.00  0.00  0.00  0.00
  WS02006256WS02006235    1.00   0.02  0.00  0.00  0.98  0.00  0.00  0.00  0.00  0.00
  WS02006280WS02006229    1.00   0.14  0.00  0.00  0.10  0.05  0.00  0.71  0.03  0.00
  WS02006284WS02006280    1.00   0.14  0.00  0.00  0.06  0.00  0.00  0.80  0.00  0.00
  WS02006287WS02006284    1.00   0.10  0.07  0.00  0.57  0.26  0.00  0.00  0.67  0.00
  WSF200WS02003060        1.00   0.00  0.06  0.00  0.71  0.23  0.00  0.00  0.68  0.00
  YS02001580YS02001583    1.00   0.23  0.62  0.00  0.15  0.00  0.00  0.00  0.72  0.00
  YS02001583YS02001586    1.00   0.45  0.34  0.00  0.21  0.00  0.00  0.00  0.72  0.00
  YS02001586YS02001590    1.00   0.13  0.00  0.00  0.36  0.05  0.00  0.46  0.34  0.00
  YS02001590YS02001593    1.00   0.13  0.01  0.00  0.07  0.00  0.79  0.00  0.00  0.00
  YS02001593YS02001596    1.00   0.14  0.00  0.00  0.08  0.01  0.00  0.77  0.02  0.00
  YS02001596YS02001600    1.00   0.14  0.00  0.00  0.15  0.02  0.00  0.70  0.06  0.00
  YS02001600YS02001601    1.00   0.13  0.01  0.00  0.86  0.00  0.00  0.00  0.65  0.00
  YS02001601YS02001602    1.00   0.13  0.01  0.00  0.86  0.00  0.00  0.00  0.00  0.00
  YS02001602YS02001605    1.00   0.14  0.00  0.00  0.86  0.00  0.00  0.00  0.00  0.00
  YS02001605YS02001607    1.00   0.14  0.00  0.00  0.86  0.00  0.00  0.00  0.00  0.00
  YS02001607YS02001610    1.00   0.13  0.01  0.00  0.85  0.00  0.00  0.00  0.02  0.00
  YS02001610YS02001613    1.00   0.13  0.00  0.00  0.87  0.00  0.00  0.00  0.01  0.00
  YS02001613YS02001616    1.00   0.13  0.00  0.00  0.87  0.00  0.00  0.00  0.01  0.00
  YS02001616YS02001619    1.00   0.13  0.00  0.00  0.87  0.00  0.00  0.00  0.00  0.00
  YS02001619YS02001622    1.00   0.13  0.00  0.00  0.87  0.00  0.00  0.00  0.31  0.00
  YS02001622YS02001625    1.00   0.13  0.00  0.00  0.87  0.00  0.00  0.00  0.06  0.00
  YS02001625YS02001629    1.00   0.13  0.06  0.00  0.10  0.00  0.70  0.00  0.00  0.00
  YS02001629YS02163301    1.00   0.17  0.01  0.00  0.82  0.00  0.00  0.00  0.00  0.00
  YS02001633YS02163601    1.00   0.00  0.01  0.00  0.99  0.00  0.00  0.00  0.16  0.00
  YS02001641YS02001644    1.00   0.00  0.01  0.00  0.99  0.00  0.00  0.00  0.00  0.00
  YS02001644YS02001647    1.00   0.00  0.19  0.00  0.81  0.00  0.00  0.00  0.00  0.00
  YS02001647YS02001649    1.00   0.00  0.19  0.00  0.47  0.34  0.00  0.00  0.59  0.00
  YS02001649YS02001757    1.00   0.00  0.00  0.00  0.83  0.17  0.00  0.00  0.89  0.00
  YS02001652YS02001649    1.00   0.00  0.00  0.00  0.96  0.04  0.00  0.00  0.78  0.00
  YS02001655YS02001652    1.00   0.00  0.00  0.00  0.12  0.02  0.00  0.86  0.08  0.00
  YS02001658YS02001655    1.00   0.00  0.15  0.00  0.59  0.26  0.00  0.00  0.76  0.00
  YS02001661YS02001658    1.00   0.15  0.00  0.00  0.44  0.42  0.00  0.00  0.75  0.00
  YS02001664YS02001661    1.00   0.13  0.00  0.00  0.77  0.10  0.00  0.00  0.87  0.00
  YS02001745YS02001748    1.00   0.00  0.00  0.00  0.01  0.01  0.00  0.98  0.02  0.00
  YS02001748YS02001751    1.00   0.00  0.00  0.00  0.77  0.23  0.00  0.00  0.85  0.00
  YS02001751YS02001754    1.00   0.00  0.00  0.00  0.07  0.01  0.00  0.92  0.04  0.00
  YS02001754YS02001757    1.00   0.00  0.00  0.00  1.00  0.00  0.00  0.00  0.91  0.00
  YS02001757CaochengTiaoxuchi    1.00   0.00  0.00  0.00  0.21  0.79  0.00  0.00  0.23  0.00
  YS02001759YS02001757    1.00   0.00  0.00  0.00  1.00  0.00  0.00  0.00  0.75  0.00
  YS02001762YS02001759    1.00   0.00  0.00  0.00  1.00  0.00  0.00  0.00  0.05  0.00
  YS02001765YS02001762    1.00   0.00  0.00  0.00  1.00  0.00  0.00  0.00  0.78  0.00
  YS02001767YS02001765    1.00   0.00  0.00  0.00  1.00  0.00  0.00  0.00  0.00  0.00
  YS02001770YS02001767    1.00   0.00  0.00  0.00  1.00  0.00  0.00  0.00  0.00  0.00
  YS02001774YS02001770    1.00   0.00  0.14  0.00  0.67  0.00  0.19  0.00  0.04  0.00
  YS02001779YS02001774    1.00   0.00  0.00  0.00  1.00  0.00  0.00  0.00  0.84  0.00
  YS02001783YS02001784    1.00   0.00  0.20  0.00  0.80  0.00  0.00  0.00  0.57  0.00
  YS02001784YS02001785    1.00   0.00  0.00  0.00  1.00  0.00  0.00  0.00  0.18  0.00
  YS02001786YS02001788    1.00   0.00  0.00  0.00  0.80  0.20  0.00  0.00  0.00  0.00
  YS02001788YS02001790    1.00   0.00  0.00  0.00  0.22  0.78  0.00  0.00  0.87  0.00
  YS02001790YS02001791    1.00   0.00  0.00  0.00  0.01  0.99  0.00  0.00  0.15  0.00
  YS02001791YS02001793    1.00   0.00  0.00  0.00  0.00  1.00  0.00  0.00  0.01  0.00
  YS02001793JiankangQianchi    1.00   0.00  0.00  0.00  0.06  0.93  0.00  0.00  0.08  0.00
  YS02001882YS02001884    1.00   0.16  0.01  0.00  0.82  0.00  0.00  0.00  0.00  0.00
  YS02001884YS02001887    1.00   0.06  0.05  0.00  0.89  0.00  0.00  0.00  0.00  0.00
  YS02001887YS02001890    1.00   0.00  0.00  0.00  0.97  0.00  0.03  0.00  0.00  0.00
  YS02001890YS02001895    1.00   0.00  0.18  0.00  0.82  0.00  0.00  0.00  0.00  0.00
  YS02001895YS02001898    1.00   0.18  0.00  0.00  0.80  0.00  0.02  0.00  0.00  0.00
  YS02001898YS02001901    1.00   0.18  0.00  0.00  0.81  0.00  0.00  0.00  0.01  0.00
  YS02001901YS02001904    1.00   0.18  0.00  0.00  0.82  0.00  0.00  0.00  0.00  0.00
  YS02001904YS02001907    1.00   0.00  0.18  0.00  0.82  0.00  0.00  0.00  0.00  0.00
  YS02001907YS02006553    1.00   0.00  0.02  0.00  0.98  0.00  0.00  0.00  0.00  0.00
  YS02001910YS02001907    1.00   0.00  0.00  0.00  0.97  0.00  0.00  0.03  0.12  0.00
  YS02001915YS02001910    1.00   0.00  0.00  0.00  0.96  0.04  0.00  0.00  0.18  0.00
  YS02001918YS02001915    1.00   0.00  0.00  0.00  0.98  0.02  0.00  0.00  0.79  0.00
  YS02001920YS02001918    1.00   0.00  0.00  0.00  1.00  0.00  0.00  0.00  0.01  0.00
  YS02001923YS02001920    1.00   0.00  0.00  0.00  1.00  0.00  0.00  0.00  0.95  0.00
  YS02001926YS02001923    1.00   0.00  0.07  0.00  0.03  0.00  0.89  0.00  0.00  0.00
  YS02001929YS02001926    1.00   0.00  0.13  0.00  0.87  0.00  0.00  0.00  0.85  0.00
  YS02006553YS02006556    1.00   0.01  0.00  0.00  0.99  0.00  0.00  0.00  0.03  0.00
  YS02006556YS02006558    1.00   0.00  0.00  0.00  1.00  0.00  0.00  0.00  0.00  0.00
  YS02006558YS02006561    1.00   0.20  0.00  0.00  0.03  0.77  0.00  0.00  0.19  0.00
  YS02006561YS02001783    1.00   0.20  0.00  0.00  0.05  0.75  0.00  0.00  0.71  0.00
  YS02163301YS02001633    1.00   0.00  0.17  0.00  0.83  0.00  0.00  0.00  0.00  0.00
  YS02163601YS02164001    1.00   0.00  0.08  0.00  0.92  0.00  0.00  0.00  0.00  0.00
  YS02164001YS02001641    1.00   0.01  0.07  0.00  0.92  0.00  0.00  0.00  0.06  0.00
  YSB1154YSB6556          1.00   0.12  0.00  0.00  0.88  0.00  0.00  0.00  0.02  0.00
  YSB1171HS02004479       1.00   0.04  0.00  0.00  0.95  0.00  0.00  0.01  0.11  0.00
  YSB1174YSB1171          1.00   0.05  0.04  0.00  0.91  0.00  0.00  0.00  0.00  0.00
  YSB6556YSB1171          1.00   0.04  0.08  0.00  0.88  0.00  0.00  0.00  0.00  0.00
  
  
  *************************
  Conduit Surcharge Summary
  *************************
  
  ----------------------------------------------------------------------------
                                                           Hours        Hours 
                         --------- Hours Full --------   Above Full   Capacity
  Conduit                Both Ends  Upstream  Dnstream   Normal Flow   Limited
  ----------------------------------------------------------------------------
  HS02004478WS02006287        0.24      0.24      0.38      0.01         0.01
  HS02004479HS02004480        0.39      0.39      0.40      0.01         0.01
  HS02004480HS02004478        0.33      0.38      0.33      1.29         0.33
  HS02004770HS02004777        0.31      0.32      0.32      0.09         0.06
  HS02004777HS02004785        0.27      0.27      0.32      0.01         0.01
  HS02004785HS02004788        0.26      0.27      0.26      0.96         0.25
  HS02004788HS02004792        0.26      0.26      0.35      0.01         0.01
  HS02004792HS02004799        0.35      0.35      0.44      0.01         0.01
  HS02004799HS02004480        0.38      0.38      0.44      0.50         0.01
  HS02004802HS02004478        0.34      0.34      0.39      0.01         0.01
  HS02004807HS02004802        0.37      0.37      0.39      0.01         0.02
  HS02004817HS02004807        0.37      0.37      0.80      0.01         0.01
  HS02004817HS02004824        0.26      0.26      0.80      0.01         0.01
  HS02004824HS02004830        0.24      0.24      0.26      0.01         0.01
  HS02004830HS02004837        0.20      0.20      0.24      0.01         0.01
  HS02004837HS02004842        0.20      0.20      0.31      0.01         0.01
  HS02004842HS02004848        0.17      0.17      0.31      0.01         0.01
  HS02004848HS02004852        0.17      0.17      0.19      0.03         0.01
  HS02004852HS02004856        0.19      0.19      0.21      0.02         0.01
  HS02004856HS02004862        0.16      0.16      0.20      0.02         0.01
  HS02004862HS02004870        0.20      0.20      0.21      0.02         0.01
  HS02004870HS02004876        0.21      0.21      0.27      0.01         0.01
  HS02004876HS02004881        0.24      0.27      0.24      0.98         0.24
  HS02004881HS02006253        0.24      0.24      1.19      0.01         0.01
  HS02004901HS02004770        0.32      0.32      0.32      0.01         0.01
  WS02003072WS02003073        0.01      0.01      0.01      2.09         0.01
  WS02004401WS02004402        1.32      1.32      1.34      0.99         0.97
  WS02004402WS02004403        1.34      1.34      1.35      1.32         1.30
  WS02004403WS02004404        1.35      1.35      1.43      0.01         0.01
  WS02004404WS02004405        1.42      1.43      1.42      2.88         1.42
  WS02004405WS02004406        1.40      1.42      1.40      1.58         1.40
  WS02004406WS02004407        0.01      0.01      1.40      0.01         0.01
  WS02004407WS02004409        0.01      0.01      0.61      0.01         0.01
  WS02004409WS02004410        0.54      0.61      0.54      1.20         0.54
  WS02004410WS02004411        0.51      0.54      0.51      1.27         0.50
  WS02004411WS02004412        0.45      0.51      0.45      1.31         0.45
  WS02004412WS02004413        0.45      0.45      0.84      0.01         0.01
  WS02004413WS02003067        0.01      0.01      0.84      0.01         0.01
  WS02006109WS02006110        1.54      1.55      1.80      1.55         0.01
  WS02006110WS02006113        0.83      0.83      1.79      0.25         0.01
  WS02006111WS02006112        0.82      0.82      2.00      0.01         0.01
  WS02006112WS02006115        1.21      1.21      1.62      0.01         0.01
  WS02006113WS02006111        0.83      0.83      0.83      0.94         0.83
  WS02006115WS02006116        1.22      1.22      1.23      1.20         1.17
  WS02006116WS02004401        1.31      1.31      1.32      1.30         1.26
  WS02006228WS02006109        1.76      1.80      1.76      2.11         1.76
  WS02006229WS02006228        1.76      1.77      1.76      1.96         1.76
  WS02006230WS02006229        1.83      1.87      1.83      3.58         1.18
  WS02006231WS02006230        1.44      1.44      1.50      2.74         0.62
  WS02006232WS02006231        1.48      1.48      1.68      0.01         0.08
  WS02006234WS02006232        1.58      1.58      1.68      0.01         0.01
  WS02006235WS02006234        1.55      1.55      1.59      2.37         0.59
  WS02006238WS02006235        1.61      1.61      1.64      0.01         0.20
  WS02006239WS02006238        1.60      1.60      1.61      0.47         0.01
  WS02006240WS02006239        1.53      1.53      1.55      0.47         0.01
  WS02006242WS02006240        1.52      1.52      1.59      1.14         0.52
  WS02006243WS02006242        1.47      1.47      1.56      0.01         0.01
  WS02006245WS02006243        1.44      1.44      1.46      0.01         0.01
  WS02006247WS02006245        1.43      1.44      1.43      2.03         0.65
  WS02006248WS02006247        1.40      1.40      1.44      0.01         0.01
  WS02006249WS02006248        1.38      1.38      1.40      1.28         0.01
  WS02006251WS02006249        1.37      1.37      1.40      0.75         0.72
  WS02006252WS02006251        1.16      1.17      1.28      0.01         0.01
  WS02006253WS02006251        1.37      1.37      1.39      0.49         0.01
  WS02006256WS02006235        2.63      2.63      7.30      0.58         0.01
  WS02006280WS02006229        0.47      0.47      0.53      0.01         0.01
  WS02006284WS02006280        0.40      0.40      0.46      0.01         0.01
  WS02006287WS02006284        0.33      0.33      0.41      0.06         0.06
  YS02001580YS02001583        0.27      0.28      0.32      0.01         0.01
  YS02001583YS02001586        0.28      0.28      0.41      0.01         0.01
  YS02001586YS02001590        0.42      0.42      0.48      0.01         0.01
  YS02001590YS02001593        0.47      0.47      0.49      0.52         0.01
  YS02001593YS02001596        0.48      0.48      0.56      0.01         0.01
  YS02001596YS02001600        0.59      0.59      0.67      0.01         0.01
  YS02001600YS02001601        0.72      0.72      0.98      0.01         0.01
  YS02001601YS02001602        0.87      0.87      1.03      0.69         0.01
  YS02001602YS02001605        0.82      0.82      0.87      1.82         0.01
  YS02001605YS02001607        0.79      0.82      0.79      0.94         0.79
  YS02001607YS02001610        0.41      0.41      0.43      0.01         0.01
  YS02001610YS02001613        0.40      0.40      0.43      0.01         0.01
  YS02001613YS02001616        0.36      0.36      0.40      0.01         0.01
  YS02001616YS02001619        0.35      0.35      0.36      0.01         0.01
  YS02001619YS02001622        0.34      0.35      0.34      0.51         0.32
  YS02001622YS02001625        0.34      0.34      0.51      0.01         0.01
  YS02001625YS02001629        0.25      0.25      0.51      0.01         0.01
  YS02001629YS02163301        0.49      0.49      0.50      0.27         0.27
  YS02001633YS02163601        0.52      0.52      0.54      0.42         0.41
  YS02001641YS02001644        0.37      0.42      0.37      1.08         0.37
  YS02001644YS02001647        0.17      0.17      0.37      0.03         0.01
  YS02001647YS02001649        0.17      0.17      0.20      0.01         0.01
  YS02001649YS02001757        0.18      0.20      0.18      0.27         0.18
  YS02001652YS02001649        0.13      0.13      0.20      0.01         0.01
  YS02001655YS02001652        0.04      0.04      0.11      0.01         0.01
  YS02001658YS02001655        0.01      0.01      0.04      0.01         0.01
  YS02001751YS02001754        0.01      0.01      0.04      0.01         0.01
  YS02001754YS02001757        0.06      0.06      0.18      0.01         0.01
  YS02001757CaochengTiaoxuchi        0.01      0.18      0.01      0.28         0.01
  YS02001759YS02001757        0.15      0.15      0.18      0.01         0.01
  YS02001762YS02001759        0.14      0.14      0.15      0.01         0.01
  YS02001765YS02001762        0.13      0.13      0.14      0.01         0.01
  YS02001767YS02001765        0.12      0.12      0.13      0.01         0.01
  YS02001770YS02001767        0.12      0.12      0.12      0.36         0.11
  YS02001774YS02001770        0.11      0.11      0.15      0.01         0.01
  YS02001779YS02001774        0.07      0.07      0.15      0.01         0.01
  YS02001783YS02001784        0.30      0.32      0.30      0.43         0.30
  YS02001784YS02001785        0.21      0.30      0.21      0.59         0.21
  YS02001786YS02001788        0.01      0.21      0.01      0.50         0.01
  YS02001790YS02001791        0.01      0.01      0.01      0.29         0.01
  YS02001793JiankangQianchi        0.01      0.01      0.31      0.01         0.01
  YS02001882YS02001884        0.28      0.28      0.28      0.01         0.01
  YS02001884YS02001887        0.30      0.30      0.31      0.01         0.01
  YS02001887YS02001890        0.33      0.33      0.34      0.01         0.01
  YS02001890YS02001895        0.27      0.27      0.35      0.01         0.01
  YS02001895YS02001898        0.26      0.26      0.27      0.01         0.01
  YS02001898YS02001901        0.27      0.27      0.30      0.01         0.01
  YS02001901YS02001904        0.30      0.30      0.30      0.01         0.01
  YS02001904YS02001907        0.30      0.30      0.48      0.01         0.01
  YS02001907YS02006553        0.59      0.59      0.64      0.01         0.01
  YS02001910YS02001907        0.35      0.35      0.47      0.01         0.01
  YS02001915YS02001910        0.27      0.27      0.35      0.01         0.01
  YS02001918YS02001915        0.20      0.20      0.27      0.01         0.01
  YS02001920YS02001918        0.20      0.20      0.21      0.01         0.01
  YS02001923YS02001920        0.14      0.14      0.21      0.01         0.01
  YS02001926YS02001923        0.01      0.01      0.01      0.01         0.01
  YS02001929YS02001926        0.01      0.01      0.01      0.01         0.01
  YS02006553YS02006556        0.41      0.41      0.49      0.01         0.01
  YS02006556YS02006558        0.45      0.45      0.49      0.01         0.01
  YS02006558YS02006561        0.23      0.40      0.23      0.56         0.23
  YS02006561YS02001783        0.16      0.16      0.32      0.01         0.01
  YS02163301YS02001633        0.50      0.50      0.53      0.01         0.01
  YS02163601YS02164001        0.44      0.44      0.54      0.22         0.01
  YS02164001YS02001641        0.42      0.44      0.42      0.58         0.42
  YSB1154YSB6556              0.42      0.42      0.52      0.01         0.01
  YSB1171HS02004479           0.35      0.35      0.53      0.01         0.01
  YSB1174YSB1171              0.47      0.47      0.71      0.01         0.01
  YSB6556YSB1171              0.42      0.42      0.84      0.01         0.01
  
  
  ***************
  Pumping Summary
  ***************
  
  ---------------------------------------------------------------------------------------------------------
                                                  Min       Avg       Max     Total     Power    % Time Off
                        Percent   Number of      Flow      Flow      Flow    Volume     Usage    Pump Curve
  Pump                 Utilized   Start-Ups       LPS       LPS       LPS  10^6 ltr     Kw-hr    Low   High
  ---------------------------------------------------------------------------------------------------------
  CC-R1                   31.25           9      0.00    524.36    683.00     3.411     54.67    0.0  100.0
  CC-R2                   88.54           7      0.00    314.66    683.00     4.896     78.72    0.0  100.0
  CC-S1                   15.62           3      0.00    192.27    200.00     0.870      7.07    0.0   39.5
  CC-S2                   67.71          10      0.00     90.37    200.00     1.021      7.71    0.0   84.1
  JK-R1                   83.33           8      0.00    109.88   1000.00     1.814      5.53    0.0    0.0
  JK-R2                   41.67           6      0.00    164.01   1000.00     1.744      4.88    0.0    0.0
  JK-S                    38.54           9      0.00     94.61    300.00     0.909     19.80    0.0    0.0
  XR-1                    97.91           1      0.00     95.00     95.00     2.679      9.64    0.0    0.0
  XR-2                    93.95           1      0.00     95.00     95.00     2.570      8.80    0.0    0.0
  XR-3                     0.00           0      0.00      0.00      0.00     0.000      0.00    0.0    0.0
  XR-4                     0.00           0      0.00      0.00      0.00     0.000      0.00    0.0    0.0
  

  Analysis begun on:  Thu Jun 15 06:46:18 2023
  Analysis ended on:  Thu Jun 15 06:46:22 2023
  Total elapsed time: 00:00:04