
  OWA STORM WATER MANAGEMENT MODEL - VERSION v5.2.3 (OWA 2023-03-28)
  ------------------------------------------------------------

  WARNING 04: minimum elevation drop used for Conduit WS02004404WS02004405
  WARNING 03: negative offset ignored for Link YS02001904YS02001907
  
  ****************
  Analysis Options
  ****************
  Flow Units ............... LPS
  Process Models:
    Rainfall/Runoff ........ YES
    RDII ................... NO
    Snowmelt ............... NO
    Groundwater ............ NO
    Flow Routing ........... YES
    Ponding Allowed ........ NO
    Water Quality .......... NO
  Infiltration Method ...... HORTON
  Flow Routing Method ...... DYNWAVE
  Surcharge Method ......... EXTRAN
  Starting Date ............ 08/28/2015 08:00:00
  Ending Date .............. 08/28/2015 16:00:00
  Antecedent Dry Days ...... 8.0
  Report Time Step ......... 00:01:00
  Wet Time Step ............ 00:01:00
  Dry Time Step ............ 00:01:00
  Routing Time Step ........ 30.00 sec
  Variable Time Step ....... YES
  Maximum Trials ........... 8
  Number of Threads ........ 1
  Head Tolerance ........... 0.001500 m
  
  
  **************************        Volume         Depth
  Runoff Quantity Continuity     hectare-m            mm
  **************************     ---------       -------
  Total Precipitation ......         4.472        73.829
  Evaporation Loss .........         0.000         0.000
  Infiltration Loss ........         0.249         4.105
  Surface Runoff ...........         4.164        68.734
  Final Storage ............         0.061         1.008
  Continuity Error (%) .....        -0.024
  
  
  **************************        Volume        Volume
  Flow Routing Continuity        hectare-m      10^6 ltr
  **************************     ---------     ---------
  Dry Weather Inflow .......         0.630         6.296
  Wet Weather Inflow .......         4.165        41.647
  Groundwater Inflow .......         0.000         0.000
  RDII Inflow ..............         0.000         0.000
  External Inflow ..........         0.105         1.045
  External Outflow .........         3.190        31.896
  Flooding Loss ............         2.077        20.767
  Evaporation Loss .........         0.000         0.000
  Exfiltration Loss ........         0.000         0.000
  Initial Stored Volume ....         0.303         3.031
  Final Stored Volume ......         0.176         1.765
  Continuity Error (%) .....        -4.629
  
  
  *************************
  Highest Continuity Errors
  *************************
  Node JK-storage (-37.74%)
  Node YS02001884 (5.08%)
  Node CC-storage (-4.09%)
  Node YS02001583 (-3.68%)
  Node HS02004842 (1.53%)
  
  
  ***************************
  Time-Step Critical Elements
  ***************************
  Link WS02006252WS02006251 (63.87%)
  Link WS02006280WS02006229 (11.61%)
  Link YS02001793JiankangQianchi (11.34%)
  Link WS02006238WS02006235 (4.77%)
  Link WS02003066WSF200 (1.79%)
  
  
  ********************************
  Highest Flow Instability Indexes
  ********************************
  Link WS02006113WS02006111 (41)
  Link WS02006111WS02006112 (19)
  Link WS02006238WS02006235 (17)
  Link WS02004404WS02004405 (16)
  Link WS02006252WS02006251 (14)
  
  
  *********************************
  Most Frequent Nonconverging Nodes
  *********************************
  Node CC-1 (10.21%)
  Node CC-2 (10.21%)
  Node JK-1 (10.21%)
  Node JK-2 (10.21%)
  Node WSC (10.21%)
  
  
  *************************
  Routing Time Step Summary
  *************************
  Minimum Time Step           :     0.00 sec
  Average Time Step           :     1.35 sec
  Maximum Time Step           :    30.00 sec
  % of Time in Steady State   :     0.00
  Average Iterations per Step :     3.06
  % of Steps Not Converging   :    10.21
  Time Step Frequencies       :
     30.000 - 13.228 sec      :     0.00 %
     13.228 -  5.833 sec      :     1.06 %
      5.833 -  2.572 sec      :     9.84 %
      2.572 -  1.134 sec      :    22.46 %
      1.134 -  0.500 sec      :    66.63 %
  
  
  ***************************
  Subcatchment Runoff Summary
  ***************************
  
  ------------------------------------------------------------------------------------------------------------------------------
                            Total      Total      Total      Total     Imperv       Perv      Total       Total     Peak  Runoff
                           Precip      Runon       Evap      Infil     Runoff     Runoff     Runoff      Runoff   Runoff   Coeff
  Subcatchment                 mm         mm         mm         mm         mm         mm         mm    10^6 ltr      LPS
  ------------------------------------------------------------------------------------------------------------------------------
  sub0                      73.83       0.00       0.00       1.01      67.42       4.16      71.58        0.06    46.90   0.970
  sub1                      73.83       0.00       0.00       1.74      64.47       6.39      70.85        0.47   330.09   0.960
  sub10                     73.83       0.00       0.00       1.22      66.65       4.69      71.34        0.79   560.49   0.966
  sub11                     73.83       0.00       0.00       1.20      66.67       4.71      71.38        0.83   617.87   0.967
  sub12                     73.83       0.00       0.00       1.95      63.06       7.65      70.72        0.62   489.98   0.958
  sub14                     73.83       0.00       0.00       1.37      65.93       5.28      71.21        0.68   494.85   0.965
  sub15                     73.83       0.00       0.00       5.46      50.71      16.69      67.41        1.16   789.33   0.913
  sub16                     73.83       0.00       0.00       5.61      48.56      18.76      67.32        0.70   524.66   0.912
  sub17                     73.83       0.00       0.00       5.48      49.29      18.15      67.44        0.58   426.62   0.913
  sub2                      73.83       0.00       0.00       7.84      45.61      19.48      65.09        0.61   352.17   0.882
  sub22                     73.83       0.00       0.00       8.30      41.31      23.45      64.76        4.09  2686.38   0.877
  sub23                     73.83       0.00       0.00       6.75      45.66      20.58      66.23        3.16  2194.60   0.897
  sub3                      73.83       0.00       0.00       8.54      45.57      18.78      64.35        1.45   766.77   0.872
  sub4                      73.83       0.00       0.00       1.96      64.29       6.16      70.45        1.47   827.15   0.954
  sub5                      73.83       0.00       0.00       1.06      67.36       4.11      71.47        0.81   567.42   0.968
  sub60                     73.83       0.00       0.00       1.84      63.77       7.02      70.79        0.93   701.00   0.959
  sub61                     73.83       0.00       0.00       2.67      60.15       9.88      70.03        1.29   975.50   0.949
  sub62                     73.83       0.00       0.00       1.23      66.64       4.68      71.32        1.95  1375.58   0.966
  sub63                     73.83       0.00       0.00       4.99      51.45      16.43      67.88        1.54  1118.65   0.919
  sub64                     73.83       0.00       0.00       2.51      61.55       8.56      70.11        1.68  1132.02   0.950
  sub65                     73.83       0.00       0.00       2.17      62.98       7.42      70.40        1.94  1264.32   0.954
  sub66                     73.83       0.00       0.00       6.24      51.34      15.17      66.51        3.10  1710.31   0.901
  sub67                     73.83       0.00       0.00       1.17      66.69       4.74      71.42        1.33  1041.32   0.967
  sub68                     73.83       0.00       0.00       2.22      62.31       8.12      70.43        1.94  1412.27   0.954
  sub69                     73.83       0.00       0.00       2.01      62.65       9.07      71.71        2.65  1678.53   0.971
  sub7                      73.83       0.00       0.00       1.35      65.95       5.30      71.25        0.24   182.32   0.965
  sub70                     73.83       0.00       0.00       6.79      48.56      18.31      66.87        1.93   959.89   0.906
  sub71                     73.83       0.00       0.00       1.26      66.60       4.65      71.24        1.86  1218.59   0.965
  sub72                     73.83       0.00       0.00       1.13      67.26       4.04      71.30        0.98   591.85   0.966
  sub8                      73.83       0.00       0.00       1.36      65.94       5.28      71.22        0.46   336.05   0.965
  sub9                      73.83       0.00       0.00       1.37      65.94       5.28      71.22        0.34   251.35   0.965
  
  
  ******************
  Node Depth Summary
  ******************
  
  ---------------------------------------------------------------------------------
                                 Average  Maximum  Maximum  Time of Max    Reported
                                   Depth    Depth      HGL   Occurrence   Max Depth
  Node                 Type       Meters   Meters   Meters  days hr:min      Meters
  ---------------------------------------------------------------------------------
  HS02004478           JUNCTION     0.21     1.59    10.82     0  02:20        1.58
  HS02004479           JUNCTION     0.28     1.70    10.91     0  02:14        1.67
  HS02004480           JUNCTION     0.24     1.68    10.92     0  02:14        1.63
  HS02004770           JUNCTION     0.25     1.42    11.25     0  02:11        1.42
  HS02004777           JUNCTION     0.28     1.48    11.28     0  02:11        1.47
  HS02004785           JUNCTION     0.17     1.49    11.39     0  02:11        1.38
  HS02004788           JUNCTION     0.14     1.42    11.32     0  02:11        1.39
  HS02004792           JUNCTION     0.19     1.60    11.12     0  02:11        1.60
  HS02004799           JUNCTION     0.30     1.76    10.97     0  02:14        1.76
  HS02004802           JUNCTION     0.31     1.80    10.93     0  02:21        1.79
  HS02004807           JUNCTION     0.28     1.92    11.09     0  02:14        1.92
  HS02004817           JUNCTION     0.58     2.44    11.29     0  02:14        2.41
  HS02004824           JUNCTION     0.16     2.01    11.41     0  02:14        2.01
  HS02004830           JUNCTION     0.17     2.03    11.50     0  02:14        1.99
  HS02004837           JUNCTION     0.14     2.04    11.62     0  02:14        1.93
  HS02004842           JUNCTION     0.44     2.22    11.49     0  02:14        2.22
  HS02004848           JUNCTION     0.12     2.07    11.67     0  02:14        1.92
  HS02004852           JUNCTION     0.13     2.12    11.63     0  02:14        1.98
  HS02004856           JUNCTION     0.19     2.07    11.50     0  02:14        2.04
  HS02004862           JUNCTION     0.14     2.00    11.38     0  02:14        2.00
  HS02004870           JUNCTION     0.13     2.04    11.32     0  02:24        2.04
  HS02004876           JUNCTION     0.18     2.14    11.17     0  02:24        2.14
  HS02004881           JUNCTION     0.12     1.89    10.92     0  02:25        1.89
  HS02004901           JUNCTION     0.26     1.42    11.24     0  02:11        1.42
  WS02001211           JUNCTION     0.63     0.82     5.66     0  02:28        0.82
  WS02001212           JUNCTION     0.37     0.58     5.65     0  02:28        0.58
  WS02001213           JUNCTION     0.59     0.88     5.64     0  02:28        0.88
  WS02003059           JUNCTION     0.66     0.95     5.64     0  02:25        0.95
  WS02003060           JUNCTION     0.39     0.70     5.63     0  02:25        0.70
  WS02003066           JUNCTION     0.24     0.47     6.02     0  02:24        0.47
  WS02003067           JUNCTION     0.57     0.90     6.22     0  02:24        0.90
  WS02003069           JUNCTION     0.44     0.79     5.38     0  02:26        0.79
  WS02003072           JUNCTION     0.50     0.82     5.19     0  02:26        0.82
  WS02003073           JUNCTION     0.30     0.52     4.59     0  02:27        0.52
  WS02004138           JUNCTION     0.13     0.14     7.39     0  00:31        0.14
  WS02004139           JUNCTION     0.57     0.76     5.67     0  02:27        0.76
  WS02004401           JUNCTION     0.79     2.00     8.00     0  02:24        1.99
  WS02004402           JUNCTION     0.81     1.94     7.90     0  02:24        1.92
  WS02004403           JUNCTION     0.82     1.85     7.78     0  02:24        1.84
  WS02004404           JUNCTION     0.89     1.86     7.71     0  02:24        1.85
  WS02004405           JUNCTION     0.88     1.81     7.66     0  02:24        1.79
  WS02004406           JUNCTION     0.87     1.69     7.52     0  02:24        1.67
  WS02004407           JUNCTION     0.28     1.02     7.34     0  02:24        1.01
  WS02004409           JUNCTION     0.56     1.45     7.22     0  02:24        1.42
  WS02004410           JUNCTION     0.57     1.35     7.07     0  02:24        1.33
  WS02004411           JUNCTION     0.57     1.24     6.92     0  02:24        1.23
  WS02004412           JUNCTION     0.57     1.13     6.77     0  02:24        1.13
  WS02004413           JUNCTION     0.71     1.16     6.63     0  02:24        1.16
  WS02006109           JUNCTION     0.97     2.64     9.26     0  02:11        2.64
  WS02006110           JUNCTION     0.92     2.44     9.03     0  02:24        2.44
  WS02006111           JUNCTION     0.41     1.88     8.59     0  02:24        1.87
  WS02006112           JUNCTION     1.00     2.68     8.56     0  00:00        2.54
  WS02006113           JUNCTION     0.50     1.91     8.81     0  02:24        1.91
  WS02006115           JUNCTION     0.70     2.12     8.26     0  02:24        2.11
  WS02006116           JUNCTION     0.78     2.10     8.14     0  02:24        2.09
  WS02006228           JUNCTION     1.02     3.03     9.68     0  02:14        3.03
  WS02006229           JUNCTION     1.02     3.23     9.92     0  02:14        3.22
  WS02006230           JUNCTION     0.95     2.65     9.39     0  02:06        2.65
  WS02006231           JUNCTION     0.69     2.23     9.35     0  02:13        2.23
  WS02006232           JUNCTION     0.79     2.18     9.22     0  02:06        2.18
  WS02006234           JUNCTION     0.68     1.96     9.12     0  02:03        1.96
  WS02006235           JUNCTION     0.70     2.00     9.16     0  02:55        1.94
  WS02006238           JUNCTION     0.72     2.04     9.18     0  02:55        1.94
  WS02006239           JUNCTION     0.67     1.87     9.08     0  02:55        1.80
  WS02006240           JUNCTION     0.62     2.10     9.39     0  01:40        1.66
  WS02006242           JUNCTION     0.66     1.55     8.82     0  01:37        1.55
  WS02006243           JUNCTION     0.55     1.48     8.90     0  01:38        1.39
  WS02006245           JUNCTION     0.53     1.44     8.92     0  01:40        1.27
  WS02006247           JUNCTION     0.54     1.32     8.82     0  01:40        1.23
  WS02006248           JUNCTION     0.49     1.10     8.69     0  01:39        1.10
  WS02006249           JUNCTION     0.51     1.09     8.69     0  01:38        1.09
  WS02006251           JUNCTION     0.59     2.21     9.88     0  02:14        2.16
  WS02006252           JUNCTION     0.42     1.50     9.74     0  02:05        1.50
  WS02006253           JUNCTION     0.66     3.16    10.81     0  02:24        3.15
  WS02006256           JUNCTION     1.00     2.35     9.28     0  00:11        2.35
  WS02006280           JUNCTION     0.26     1.75    10.02     0  02:14        1.74
  WS02006284           JUNCTION     0.53     1.95    10.35     0  02:26        1.95
  WS02006287           JUNCTION     0.27     1.74    10.69     0  02:30        1.73
  WSF200               JUNCTION     0.24     0.53     5.77     0  02:25        0.53
  YS02001580           JUNCTION     0.08     1.05     9.59     0  02:09        0.77
  YS02001583           JUNCTION     0.11     1.14     9.64     0  02:09        0.82
  YS02001586           JUNCTION     0.18     1.13     9.30     0  02:09        1.13
  YS02001590           JUNCTION     0.28     1.40     9.26     0  02:09        1.38
  YS02001593           JUNCTION     0.21     1.34     9.21     0  02:13        1.34
  YS02001596           JUNCTION     0.28     1.68     9.10     0  02:09        1.68
  YS02001600           JUNCTION     0.36     1.87     9.00     0  02:09        1.86
  YS02001601           JUNCTION     0.56     2.06     8.90     0  02:08        2.06
  YS02001602           JUNCTION     0.48     1.87     8.77     0  02:13        1.87
  YS02001605           JUNCTION     0.45     1.78     8.68     0  02:43        1.77
  YS02001607           JUNCTION     0.46     1.65     8.50     0  02:41        1.65
  YS02001610           JUNCTION     0.50     1.68     8.48     0  02:14        1.68
  YS02001613           JUNCTION     0.46     1.68     8.53     0  02:19        1.68
  YS02001616           JUNCTION     0.39     1.61     8.52     0  02:22        1.61
  YS02001619           JUNCTION     0.37     1.61     8.54     0  02:19        1.61
  YS02001622           JUNCTION     0.36     1.59     8.49     0  02:22        1.59
  YS02001625           JUNCTION     0.63     1.78     8.38     0  02:15        1.78
  YS02001629           JUNCTION     0.54     1.85     8.40     0  02:16        1.85
  YS02001633           JUNCTION     0.62     2.06     8.52     0  02:19        2.06
  YS02001641           JUNCTION     0.61     1.96     8.40     0  02:19        1.96
  YS02001644           JUNCTION     0.61     1.92     8.35     0  02:19        1.92
  YS02001647           JUNCTION     0.41     1.76     8.37     0  02:20        1.76
  YS02001649           JUNCTION     0.51     1.99     8.38     0  02:24        1.99
  YS02001652           JUNCTION     0.38     1.85     8.45     0  02:24        1.84
  YS02001655           JUNCTION     0.27     1.74     8.59     0  02:19        1.65
  YS02001658           JUNCTION     0.17     1.63     8.77     0  02:19        1.44
  YS02001661           JUNCTION     0.16     1.24     8.64     0  02:24        1.24
  YS02001664           JUNCTION     0.05     0.72     8.64     0  02:24        0.71
  YS02001745           JUNCTION     0.07     0.88     8.40     0  02:24        0.87
  YS02001748           JUNCTION     0.17     1.88     8.96     0  02:20        1.29
  YS02001751           JUNCTION     0.24     1.72     8.60     0  02:18        1.47
  YS02001754           JUNCTION     0.36     1.85     8.46     0  02:20        1.71
  YS02001757           JUNCTION     0.57     2.04     8.30     0  02:24        2.04
  YS02001759           JUNCTION     0.51     2.06     8.43     0  02:24        2.06
  YS02001762           JUNCTION     0.49     2.02     8.42     0  02:24        2.02
  YS02001765           JUNCTION     0.46     1.98     8.43     0  02:24        1.98
  YS02001767           JUNCTION     0.45     1.95     8.44     0  02:24        1.95
  YS02001770           JUNCTION     0.45     1.95     8.45     0  02:20        1.95
  YS02001774           JUNCTION     0.52     2.00     8.42     0  02:24        1.99
  YS02001779           JUNCTION     0.32     1.68     8.37     0  02:16        1.68
  YS02001783           JUNCTION     0.22     1.33     7.47     0  02:15        1.24
  YS02001784           JUNCTION     0.23     1.16     7.23     0  02:15        1.12
  YS02001786           JUNCTION     0.20     0.90     6.93     0  02:15        0.88
  YS02001788           JUNCTION     0.14     0.62     6.60     0  02:22        0.62
  YS02001790           JUNCTION     0.17     0.72     6.37     0  02:22        0.72
  YS02001791           JUNCTION     0.10     0.44     5.91     0  02:22        0.42
  YS02001793           JUNCTION     0.07     0.25     5.09     0  02:23        0.25
  YS02001882           JUNCTION     0.28     1.67     8.39     0  02:25        1.67
  YS02001884           JUNCTION     0.37     1.77     8.39     0  02:24        1.77
  YS02001887           JUNCTION     0.44     1.86     8.39     0  02:24        1.86
  YS02001890           JUNCTION     0.47     1.81     8.32     0  02:15        1.81
  YS02001895           JUNCTION     0.25     1.57     8.31     0  02:21        1.57
  YS02001898           JUNCTION     0.26     1.57     8.30     0  02:22        1.57
  YS02001901           JUNCTION     0.37     1.68     8.29     0  02:20        1.67
  YS02001904           JUNCTION     0.35     1.64     8.27     0  02:15        1.64
  YS02001907           JUNCTION     0.66     1.96     8.25     0  02:13        1.96
  YS02001910           JUNCTION     0.47     2.00     8.50     0  02:16        1.98
  YS02001915           JUNCTION     0.28     1.95     8.67     0  02:25        1.95
  YS02001918           JUNCTION     0.15     1.81     8.88     0  02:16        1.64
  YS02001920           JUNCTION     0.23     2.14     9.15     0  02:16        1.72
  YS02001923           JUNCTION     0.12     2.03     9.29     0  02:16        1.49
  YS02001926           JUNCTION     0.15     1.90     9.35     0  02:16        1.33
  YS02001929           JUNCTION     0.09     1.78     9.47     0  02:16        1.10
  YS02006553           JUNCTION     0.67     2.19     8.47     0  02:13        2.19
  YS02006556           JUNCTION     0.64     2.26     8.58     0  02:13        2.26
  YS02006558           JUNCTION     0.68     2.18     8.45     0  02:13        2.18
  YS02006561           JUNCTION     0.14     1.03     7.69     0  02:15        0.90
  YS02163301           JUNCTION     0.56     1.92     8.44     0  02:22        1.92
  YS02163601           JUNCTION     0.66     2.08     8.48     0  02:19        2.08
  YS02164001           JUNCTION     0.59     1.99     8.45     0  02:19        1.99
  YSB1154              JUNCTION     0.41     2.03    11.09     0  02:24        2.03
  YSB1171              JUNCTION     0.55     1.95    10.85     0  02:11        1.95
  YSB1174              JUNCTION     0.36     1.87    10.98     0  02:24        1.87
  YSB6556              JUNCTION     0.31     1.79    10.96     0  02:25        1.79
  CC-1                 OUTFALL      0.00     0.00     0.00     0  00:00        0.00
  CC-2                 OUTFALL      0.00     0.00     0.00     0  00:00        0.00
  JK-1                 OUTFALL      0.00     0.00     0.00     0  00:00        0.00
  JK-2                 OUTFALL      0.00     0.00     0.00     0  00:00        0.00
  WSC                  OUTFALL      0.30     0.52     1.19     0  02:27        0.52
  CC-storage           STORAGE      0.92     2.19     7.69     0  03:15        2.19
  JK-storage           STORAGE      0.06     3.00     3.80     0  00:05        3.00
  XR-storage           STORAGE      7.92     9.26     7.26     0  08:00        9.26
  
  
  *******************
  Node Inflow Summary
  *******************
  
  -------------------------------------------------------------------------------------------------
                                  Maximum  Maximum                  Lateral       Total        Flow
                                  Lateral    Total  Time of Max      Inflow      Inflow     Balance
                                   Inflow   Inflow   Occurrence      Volume      Volume       Error
  Node                 Type           LPS      LPS  days hr:min    10^6 ltr    10^6 ltr     Percent
  -------------------------------------------------------------------------------------------------
  HS02004478           JUNCTION      0.00  2303.66     0  02:21           0        9.18      -0.007
  HS02004479           JUNCTION      0.00   393.13     0  02:15           0       0.903       0.086
  HS02004480           JUNCTION      0.00  2059.88     0  02:14           0        6.74       0.036
  HS02004770           JUNCTION   2194.60  2194.60     0  02:25        3.16         3.4       0.076
  HS02004777           JUNCTION      0.03   694.26     0  02:11    0.000864         1.9       0.272
  HS02004785           JUNCTION      0.15   705.12     0  02:10     0.00432         1.9       0.026
  HS02004788           JUNCTION    791.00   904.91     0  02:25        1.21        3.11       0.001
  HS02004792           JUNCTION   2686.66  3591.72     0  02:25         4.1        7.21      -0.003
  HS02004799           JUNCTION    494.85  1716.35     0  02:12       0.678        6.16       0.043
  HS02004802           JUNCTION      0.00  1233.80     0  02:27           0        2.63       0.153
  HS02004807           JUNCTION    617.87  1814.27     0  02:25        0.83         2.9       0.138
  HS02004817           JUNCTION      0.60  1197.01     0  02:27      0.0173        2.13       0.805
  HS02004824           JUNCTION    827.20  1409.95     0  02:26        1.47        2.38       0.020
  HS02004830           JUNCTION      0.15   589.21     0  02:25     0.00432        1.12       0.091
  HS02004837           JUNCTION    566.84   753.94     0  02:14        0.97        1.44       0.041
  HS02004842           JUNCTION      0.00   763.79     0  02:14           0       0.835       1.549
  HS02004848           JUNCTION    766.77  1016.75     0  02:14        1.45        2.03      -0.026
  HS02004852           JUNCTION      0.00   994.09     0  02:14           0        1.78      -0.020
  HS02004856           JUNCTION    251.35  1048.14     0  02:14       0.343        2.13       0.085
  HS02004862           JUNCTION    352.37  1116.75     0  02:14       0.612        2.74      -0.017
  HS02004870           JUNCTION    336.05  1252.75     0  02:28       0.455        3.14       0.008
  HS02004876           JUNCTION    330.09  1514.71     0  02:28       0.471        3.61       0.016
  HS02004881           JUNCTION    182.32  1676.03     0  02:24        0.24        3.85       0.008
  HS02004901           JUNCTION    524.66   790.19     0  02:25       0.705         1.1       0.149
  WS02001211           JUNCTION      7.35   205.47     0  03:06       0.212        5.44       0.612
  WS02001212           JUNCTION      0.00   211.33     0  03:02           0        5.41       0.289
  WS02001213           JUNCTION      0.00   216.50     0  03:01           0        5.39       0.333
  WS02003059           JUNCTION      0.00   221.81     0  03:01           0        5.38       0.595
  WS02003060           JUNCTION     16.53  1549.77     0  02:25       0.476        15.9       0.093
  WS02003066           JUNCTION      0.00  1352.33     0  02:24           0        10.1       0.015
  WS02003067           JUNCTION      0.00  1349.41     0  02:25           0        10.1       0.043
  WS02003069           JUNCTION      0.32  1546.36     0  02:25     0.00922        15.9       0.096
  WS02003072           JUNCTION      0.00  1545.25     0  02:26           0        15.9       0.131
  WS02003073           JUNCTION      1.82  1547.39     0  02:27      0.0524        15.9       0.136
  WS02004138           JUNCTION      0.00   190.00     0  00:29           0        5.25       0.053
  WS02004139           JUNCTION      0.32   190.32     0  00:31     0.00924        5.26       0.508
  WS02004401           JUNCTION      0.00  1350.11     0  02:25           0        10.2       0.112
  WS02004402           JUNCTION      0.00  1350.02     0  02:25           0        10.2       0.111
  WS02004403           JUNCTION      0.00  1349.63     0  02:25           0        10.2       0.107
  WS02004404           JUNCTION      0.16  1350.14     0  02:25     0.00467        10.2       0.089
  WS02004405           JUNCTION      0.04  1350.46     0  02:25      0.0011        10.1       0.125
  WS02004406           JUNCTION      0.00  1350.28     0  02:25           0        10.1       0.213
  WS02004407           JUNCTION      0.00  1350.37     0  02:25           0        10.1       0.014
  WS02004409           JUNCTION      0.00  1348.97     0  02:25           0        10.1       0.033
  WS02004410           JUNCTION      0.00  1349.28     0  02:25           0        10.1       0.048
  WS02004411           JUNCTION      0.00  1349.26     0  02:25           0        10.1       0.059
  WS02004412           JUNCTION      0.00  1349.42     0  02:25           0        10.1       0.079
  WS02004413           JUNCTION      0.00  1349.35     0  02:25           0        10.1       0.139
  WS02006109           JUNCTION      1.23  1308.01     0  00:00      0.0354        9.92       0.109
  WS02006110           JUNCTION      0.00  1124.07     0  02:40           0        9.56      -0.371
  WS02006111           JUNCTION      0.00  1176.04     0  00:00           0        9.59      -0.392
  WS02006112           JUNCTION    426.62  2307.30     0  00:00       0.579        10.2      -0.004
  WS02006113           JUNCTION      0.00  1124.19     0  02:40           0        9.55      -0.473
  WS02006115           JUNCTION      0.00  2152.75     0  00:00           0        10.2       0.048
  WS02006116           JUNCTION      0.00  1350.31     0  02:25           0        10.2       0.029
  WS02006228           JUNCTION      0.00  1288.11     0  02:21           0        9.87       0.062
  WS02006229           JUNCTION      0.00  2304.09     0  02:21           0        12.4       0.091
  WS02006230           JUNCTION     10.28  1026.11     0  02:22       0.296        5.79       0.091
  WS02006231           JUNCTION      0.00   453.51     0  02:13           0        4.45      -0.108
  WS02006232           JUNCTION      0.00   453.36     0  02:13           0        4.45       0.094
  WS02006234           JUNCTION      0.00   453.09     0  02:49           0        4.44      -0.041
  WS02006235           JUNCTION      0.00   415.07     0  02:31           0        4.43       0.059
  WS02006238           JUNCTION      0.00   415.74     0  02:31           0        3.97      -0.084
  WS02006239           JUNCTION      0.00   415.10     0  02:31           0        3.95      -0.299
  WS02006240           JUNCTION      0.00   414.90     0  02:33           0        3.95       0.006
  WS02006242           JUNCTION      0.00   414.96     0  02:32           0        3.96       0.041
  WS02006243           JUNCTION      0.00   378.72     0  05:33           0        3.54      -0.190
  WS02006245           JUNCTION      0.00   388.79     0  05:33           0        3.55       0.245
  WS02006247           JUNCTION      0.00   391.84     0  05:32           0        3.55       0.005
  WS02006248           JUNCTION      0.00   399.43     0  05:32           0        3.83      -0.074
  WS02006249           JUNCTION      0.00  1382.67     0  02:25           0        6.61       0.110
  WS02006251           JUNCTION      0.08  1723.20     0  02:25     0.00222        6.85       0.012
  WS02006252           JUNCTION      0.00   540.25     0  02:25           0        3.25      -0.295
  WS02006253           JUNCTION     46.90  1722.95     0  02:25       0.058        3.95       0.011
  WS02006256           JUNCTION      0.00   300.00     0  01:30           0        1.27       0.047
  WS02006280           JUNCTION      0.00  2303.44     0  02:21           0        9.16       0.006
  WS02006284           JUNCTION      0.10  2303.28     0  02:21     0.00275        9.16      -0.003
  WS02006287           JUNCTION      0.00  2303.99     0  02:21           0        9.16       0.008
  WSF200               JUNCTION      0.00  1353.28     0  02:25           0        10.1       0.006
  YS02001580           JUNCTION      0.00    73.10     0  02:09           0       0.004       0.568
  YS02001583           JUNCTION      0.00   117.18     0  02:09           0      0.0155      -3.553
  YS02001586           JUNCTION    959.89   959.94     0  02:26        1.93        1.94       0.044
  YS02001590           JUNCTION      0.00   317.91     0  02:44           0        1.41      -0.007
  YS02001593           JUNCTION      0.00   317.94     0  02:29           0        1.41       0.016
  YS02001596           JUNCTION      0.00   318.02     0  02:45           0        1.41      -0.010
  YS02001600           JUNCTION      0.00   317.93     0  02:43           0        1.41      -0.002
  YS02001601           JUNCTION   1678.53  1996.06     0  02:25        2.66        4.06       0.016
  YS02001602           JUNCTION      0.00   491.98     0  02:09           0        2.38       0.022
  YS02001605           JUNCTION      0.00   492.08     0  02:08           0        2.25       0.029
  YS02001607           JUNCTION      0.00   492.29     0  02:08           0        2.25       0.084
  YS02001610           JUNCTION      0.00   948.76     0  02:26           0        2.62       0.084
  YS02001613           JUNCTION      0.00   612.50     0  02:27           0        2.11       0.082
  YS02001616           JUNCTION      0.00   611.85     0  02:26           0        2.11       0.019
  YS02001619           JUNCTION   1710.31  1710.31     0  02:26         3.1        4.83      -0.003
  YS02001622           JUNCTION      0.00  1053.39     0  02:27           0        4.44       0.003
  YS02001625           JUNCTION      0.00  1498.24     0  02:27           0        4.72       0.290
  YS02001629           JUNCTION      0.00   935.66     0  02:14           0        3.66      -0.064
  YS02001633           JUNCTION   1264.52  1371.66     0  02:14        1.94        5.27       0.063
  YS02001641           JUNCTION      0.00  1370.85     0  02:14           0        4.94       0.054
  YS02001644           JUNCTION   1132.06  1770.20     0  02:25        1.69        6.62       0.039
  YS02001647           JUNCTION      0.00  1765.17     0  02:15           0           6      -0.000
  YS02001649           JUNCTION      0.00  2043.76     0  02:15           0        7.55       0.005
  YS02001652           JUNCTION      0.00  1131.09     0  02:25           0        1.55      -0.031
  YS02001655           JUNCTION      0.15  1131.43     0  02:25     0.00443        1.55      -0.068
  YS02001658           JUNCTION      0.00  1130.86     0  02:25           0        1.56      -0.006
  YS02001661           JUNCTION      0.00  1129.88     0  02:25           0        1.56       0.019
  YS02001664           JUNCTION   1118.65  1118.65     0  02:25        1.54        1.54      -0.016
  YS02001745           JUNCTION    701.00   701.00     0  02:25       0.931       0.956       0.205
  YS02001748           JUNCTION      0.04   704.01     0  02:25      0.0013       0.967      -0.269
  YS02001751           JUNCTION      0.01   704.60     0  02:25    0.000317       0.947       0.010
  YS02001754           JUNCTION      0.26   704.97     0  02:25     0.00749       0.945      -0.102
  YS02001757           JUNCTION      0.00  3592.67     0  02:23           0        11.5       0.009
  YS02001759           JUNCTION    975.54  1495.76     0  02:24        1.29        2.97      -0.014
  YS02001762           JUNCTION      0.00   792.53     0  02:20           0        1.69      -0.001
  YS02001765           JUNCTION      0.00   792.25     0  02:20           0        1.68      -0.008
  YS02001767           JUNCTION      0.54   792.27     0  02:20      0.0154        1.68      -0.017
  YS02001770           JUNCTION   1375.73  1375.73     0  02:25        1.96        2.01      -0.034
  YS02001774           JUNCTION      0.00   834.88     0  02:25           0       0.371       0.264
  YS02001779           JUNCTION      0.01   834.68     0  02:25    0.000144       0.319      -0.205
  YS02001783           JUNCTION      0.00  1170.36     0  02:24           0        4.28       0.005
  YS02001784           JUNCTION      1.06  1171.79     0  02:24      0.0305        4.31       0.013
  YS02001786           JUNCTION      0.06  1171.47     0  02:24     0.00162        4.31       0.016
  YS02001788           JUNCTION      0.07  1171.03     0  02:24     0.00204        4.31       0.007
  YS02001790           JUNCTION      0.15  1183.92     0  02:23     0.00446        4.31       0.006
  YS02001791           JUNCTION      0.00  1293.79     0  02:23           0        4.31      -0.007
  YS02001793           JUNCTION      0.00  1250.06     0  02:24           0        4.31       0.003
  YS02001882           JUNCTION      0.00    34.55     0  02:12           0      0.0126       4.983
  YS02001884           JUNCTION      0.00    37.41     0  02:10           0      0.0484       5.347
  YS02001887           JUNCTION   1041.77  1041.80     0  02:25        1.34        1.38       0.325
  YS02001890           JUNCTION      0.00  1042.32     0  02:25           0        1.33       0.372
  YS02001895           JUNCTION      0.00   517.21     0  02:29           0        1.16       0.134
  YS02001898           JUNCTION      0.00   517.50     0  02:29           0        1.15       0.019
  YS02001901           JUNCTION      0.00   517.51     0  02:29           0        1.16       0.281
  YS02001904           JUNCTION      0.00   517.54     0  02:29           0        1.16       0.237
  YS02001907           JUNCTION      0.00  2577.45     0  02:25           0        4.12       0.420
  YS02001910           JUNCTION      0.00  1821.48     0  02:25           0        2.93       0.243
  YS02001915           JUNCTION   1218.61  1819.80     0  02:25        1.86        2.95       0.053
  YS02001918           JUNCTION      0.00   603.98     0  02:25           0        1.11       0.017
  YS02001920           JUNCTION      2.87   603.38     0  02:25      0.0827        1.09       0.094
  YS02001923           JUNCTION      0.04   598.50     0  02:25     0.00109           1      -0.020
  YS02001926           JUNCTION      0.05   597.85     0  02:25      0.0015       0.987       0.018
  YS02001929           JUNCTION    591.85   591.85     0  02:26       0.981       0.981      -0.037
  YS02006553           JUNCTION      0.00   803.91     0  02:39           0        2.44       0.490
  YS02006556           JUNCTION      0.00   804.12     0  02:39           0        2.45       0.319
  YS02006558           JUNCTION   1413.15  1413.15     0  02:25        1.96        4.35       0.080
  YS02006561           JUNCTION      0.00  1170.34     0  02:24           0        4.28       0.001
  YS02163301           JUNCTION      0.00   935.53     0  02:14           0        3.66       0.038
  YS02163601           JUNCTION      0.11  1371.57     0  02:14     0.00317        4.93       0.095
  YS02164001           JUNCTION      0.00  1371.60     0  02:14           0        4.93       0.041
  YSB1154              JUNCTION    567.42   567.42     0  02:25        0.81       0.811       0.186
  YSB1171              JUNCTION      0.00  1295.49     0  02:25           0        1.59       0.387
  YSB1174              JUNCTION    489.98   489.98     0  02:25       0.618       0.619       0.207
  YSB6556              JUNCTION      0.00   567.54     0  02:25           0       0.811       0.147
  CC-1                 OUTFALL       0.00   683.00     0  01:46           0        3.87       0.000
  CC-2                 OUTFALL       0.00   683.00     0  00:20           0        7.32       0.000
  JK-1                 OUTFALL       0.00  1000.00     0  00:05           0        2.45       0.000
  JK-2                 OUTFALL       0.00  1000.00     0  02:20           0        2.39       0.000
  WSC                  OUTFALL       0.00  1547.64     0  02:27           0        15.9       0.000
  CC-storage           STORAGE       0.00  3592.22     0  02:23           0        13.7      -3.932
  JK-storage           STORAGE       0.00  1296.39     0  02:23           0        4.46     -27.400
  XR-storage           STORAGE     200.00   200.00     0  00:00        5.76        6.36       0.001
  
  
  **********************
  Node Surcharge Summary
  **********************
  
  Surcharging occurs when water rises above the top of the highest conduit.
  ---------------------------------------------------------------------
                                               Max. Height   Min. Depth
                                   Hours       Above Crown    Below Rim
  Node                 Type      Surcharged         Meters       Meters
  ---------------------------------------------------------------------
  HS02004478           JUNCTION        0.53          0.669        0.271
  HS02004479           JUNCTION        0.67          0.903        0.147
  HS02004480           JUNCTION        0.71          0.966        0.134
  HS02004770           JUNCTION        0.61          0.720        0.000
  HS02004777           JUNCTION        0.62          0.780        0.000
  HS02004785           JUNCTION        0.56          0.790        0.000
  HS02004788           JUNCTION        0.55          0.720        0.000
  HS02004792           JUNCTION        0.68          0.900        0.000
  HS02004799           JUNCTION        0.82          1.060        0.000
  HS02004802           JUNCTION        0.73          1.092        0.118
  HS02004807           JUNCTION        0.70          1.220        0.000
  HS02004817           JUNCTION        1.28          1.740        0.000
  HS02004824           JUNCTION        0.55          1.310        0.000
  HS02004830           JUNCTION        0.52          1.330        0.000
  HS02004837           JUNCTION        0.48          1.340        0.000
  HS02004842           JUNCTION        0.62          1.520        0.000
  HS02004848           JUNCTION        0.43          1.370        0.000
  HS02004852           JUNCTION        0.45          1.420        0.000
  HS02004856           JUNCTION        0.43          1.300        0.000
  HS02004862           JUNCTION        0.47          1.300        0.000
  HS02004870           JUNCTION        0.48          1.335        0.065
  HS02004876           JUNCTION        0.55          1.437        0.123
  HS02004881           JUNCTION        0.51          1.189        0.261
  HS02004901           JUNCTION        0.61          0.720        0.000
  WS02004401           JUNCTION        1.71          1.003        0.657
  WS02004402           JUNCTION        1.73          0.944        0.796
  WS02004403           JUNCTION        1.74          0.854        1.176
  WS02004404           JUNCTION        1.82          0.864        1.916
  WS02004405           JUNCTION        1.81          0.810        1.990
  WS02004406           JUNCTION        1.79          0.686        1.764
  WS02004407           JUNCTION        0.03          0.025        2.315
  WS02004409           JUNCTION        1.17          0.447        1.913
  WS02004410           JUNCTION        1.04          0.349        2.191
  WS02004411           JUNCTION        0.95          0.243        2.287
  WS02004412           JUNCTION        0.86          0.131        2.179
  WS02004413           JUNCTION        1.39          0.160        2.040
  WS02006109           JUNCTION        2.22          1.820        0.000
  WS02006110           JUNCTION        1.96          1.530        0.320
  WS02006111           JUNCTION        1.33          1.072        0.798
  WS02006112           JUNCTION        2.04          1.680        0.000
  WS02006113           JUNCTION        1.34          1.115        0.815
  WS02006115           JUNCTION        1.62          1.109        1.141
  WS02006116           JUNCTION        1.64          1.043        1.247
  WS02006228           JUNCTION        2.21          2.200        0.000
  WS02006229           JUNCTION        1.00          1.046        0.024
  WS02006230           JUNCTION        1.84          1.570        0.000
  WS02006231           JUNCTION        1.88          1.521        0.009
  WS02006232           JUNCTION        2.09          1.480        0.000
  WS02006234           JUNCTION        1.95          1.240        0.000
  WS02006235           JUNCTION        1.99          1.290        0.000
  WS02006238           JUNCTION        2.02          1.316        0.114
  WS02006239           JUNCTION        1.95          1.133        0.157
  WS02006240           JUNCTION        1.92          1.390        0.000
  WS02006242           JUNCTION        1.96          0.820        0.000
  WS02006243           JUNCTION        1.86          0.770        0.000
  WS02006245           JUNCTION        1.83          0.729        0.121
  WS02006247           JUNCTION        1.83          0.610        0.150
  WS02006248           JUNCTION        1.77          0.380        0.000
  WS02006249           JUNCTION        1.79          0.390        0.000
  WS02006251           JUNCTION        1.60          1.180        0.000
  WS02006252           JUNCTION        1.85          1.100        0.000
  WS02006253           JUNCTION        1.62          2.123        0.357
  WS02006256           JUNCTION        5.80          2.050        0.000
  WS02006280           JUNCTION        0.84          0.697        0.083
  WS02006284           JUNCTION        0.75          0.672        0.128
  WS02006287           JUNCTION        0.63          0.738        0.152
  YS02001580           JUNCTION        0.68          0.450        0.000
  YS02001583           JUNCTION        0.69          0.500        0.000
  YS02001586           JUNCTION        0.84          0.510        0.000
  YS02001590           JUNCTION        0.93          0.750        0.000
  YS02001593           JUNCTION        0.93          0.724        0.116
  YS02001596           JUNCTION        1.06          0.955        0.115
  YS02001600           JUNCTION        1.34          1.190        0.000
  YS02001601           JUNCTION        1.85          1.440        0.000
  YS02001602           JUNCTION        1.72          1.270        0.000
  YS02001605           JUNCTION        1.67          1.175        0.005
  YS02001607           JUNCTION        0.98          0.652        0.028
  YS02001610           JUNCTION        1.02          0.680        0.000
  YS02001613           JUNCTION        0.98          0.684        0.016
  YS02001616           JUNCTION        0.94          0.610        0.000
  YS02001619           JUNCTION        0.92          0.610        0.000
  YS02001622           JUNCTION        0.93          0.589        0.031
  YS02001625           JUNCTION        1.29          0.780        0.000
  YS02001629           JUNCTION        0.87          0.470        0.000
  YS02001633           JUNCTION        1.45          1.041        0.019
  YS02001641           JUNCTION        1.45          0.963        0.137
  YS02001644           JUNCTION        1.43          0.920        0.000
  YS02001647           JUNCTION        1.09          0.761        0.139
  YS02001649           JUNCTION        1.38          0.994        0.056
  YS02001652           JUNCTION        1.05          0.820        0.310
  YS02001655           JUNCTION        0.50          0.740        0.460
  YS02001658           JUNCTION        0.25          0.630        0.670
  YS02001661           JUNCTION        0.08          0.169        1.221
  YS02001748           JUNCTION        0.16          0.805        0.385
  YS02001751           JUNCTION        0.32          0.720        0.480
  YS02001754           JUNCTION        1.00          0.800        0.350
  YS02001757           JUNCTION        1.53          1.039        0.171
  YS02001759           JUNCTION        1.38          1.064        0.146
  YS02001762           JUNCTION        1.33          1.025        0.125
  YS02001765           JUNCTION        1.26          0.979        0.121
  YS02001767           JUNCTION        1.21          0.951        0.079
  YS02001770           JUNCTION        1.16          0.920        0.000
  YS02001774           JUNCTION        1.30          1.002        0.048
  YS02001779           JUNCTION        0.86          0.680        0.000
  YS02001783           JUNCTION        0.59          0.529        1.071
  YS02001784           JUNCTION        0.56          0.362        1.128
  YS02001786           JUNCTION        0.45          0.104        1.326
  YS02001882           JUNCTION        0.53          0.671        0.159
  YS02001884           JUNCTION        0.54          0.713        0.157
  YS02001887           JUNCTION        0.58          0.807        0.143
  YS02001890           JUNCTION        0.59          0.760        0.000
  YS02001895           JUNCTION        0.52          0.566        0.184
  YS02001898           JUNCTION        0.51          0.539        0.201
  YS02001901           JUNCTION        0.56          0.677        0.193
  YS02001904           JUNCTION        0.55          0.639        0.211
  YS02001907           JUNCTION        0.85          0.950        0.000
  YS02001910           JUNCTION        0.62          0.996        0.104
  YS02001915           JUNCTION        0.52          0.952        0.048
  YS02001918           JUNCTION        0.44          0.810        0.000
  YS02001920           JUNCTION        0.45          1.140        0.000
  YS02001923           JUNCTION        0.15          0.820        0.000
  YS02001926           JUNCTION        0.19          0.900        0.000
  YS02001929           JUNCTION        0.05          0.780        0.000
  YS02006553           JUNCTION        0.87          1.190        0.000
  YS02006556           JUNCTION        0.72          1.224        0.126
  YS02006558           JUNCTION        0.71          1.084        0.316
  YS02006561           JUNCTION        0.40          0.233        0.917
  YS02163301           JUNCTION        1.38          0.924        0.106
  YS02163601           JUNCTION        1.56          1.077        0.003
  YS02164001           JUNCTION        1.43          0.994        0.106
  YSB1154              JUNCTION        0.95          1.333        0.067
  YSB1171              JUNCTION        0.95          1.100        0.000
  YSB1174              JUNCTION        0.86          1.170        0.080
  YSB6556              JUNCTION        0.79          1.089        0.011
  
  
  *********************
  Node Flooding Summary
  *********************
  
  Flooding refers to all water that overflows a node, whether it ponds or not.
  --------------------------------------------------------------------------
                                                             Total   Maximum
                                 Maximum   Time of Max       Flood    Ponded
                        Hours       Rate    Occurrence      Volume     Depth
  Node                 Flooded       LPS   days hr:min    10^6 ltr    Meters
  --------------------------------------------------------------------------
  HS02004770              0.45   1815.44      0  02:25       1.096     0.000
  HS02004777              0.01     34.28      0  02:11       0.000     0.000
  HS02004785              0.01    165.40      0  02:11       0.000     0.000
  HS02004788              0.01    106.10      0  02:11       0.000     0.000
  HS02004792              0.42   2448.64      0  02:25       1.722     0.000
  HS02004799              0.25    332.10      0  02:25       0.159     0.000
  HS02004807              0.16    582.29      0  02:25       0.224     0.000
  HS02004817              0.01      8.35      0  02:14       0.000     0.000
  HS02004824              0.11    214.03      0  02:26       0.055     0.000
  HS02004830              0.01     22.29      0  02:14       0.000     0.000
  HS02004837              0.01     86.33      0  02:14       0.000     0.000
  HS02004842              0.11    235.78      0  02:25       0.054     0.000
  HS02004848              0.01    318.85      0  02:14       0.001     0.000
  HS02004852              0.01    238.32      0  02:14       0.000     0.000
  HS02004856              0.01     96.67      0  02:14       0.000     0.000
  HS02004862              0.10    290.00      0  02:14       0.052     0.000
  HS02004901              0.50    790.06      0  02:25       0.862     0.000
  WS02006109              0.47    364.09      0  02:25       0.331     0.000
  WS02006112              0.01   1153.65      0  00:00       0.035     0.000
  WS02006228              0.01      0.82      0  02:14       0.000     0.000
  WS02006230              0.75    573.29      0  02:21       1.062     0.000
  WS02006232              0.21      1.08      0  02:45       0.000     0.000
  WS02006234              0.84    128.41      0  02:51       0.252     0.000
  WS02006235              0.01     13.86      0  02:55       0.000     0.000
  WS02006240              0.01     40.69      0  01:40       0.000     0.000
  WS02006242              0.94    144.86      0  01:37       0.409     0.000
  WS02006243              0.01     68.20      0  01:38       0.000     0.000
  WS02006248              1.35    338.85      0  02:26       1.359     0.000
  WS02006249              1.61   1321.80      0  02:25       3.857     0.000
  WS02006251              0.01     21.18      0  02:14       0.000     0.000
  WS02006252              0.38    540.25      0  02:25       0.360     0.000
  WS02006256              0.92    296.55      0  02:15       0.570     0.000
  YS02001580              0.01     30.48      0  02:09       0.000     0.000
  YS02001583              0.01     53.69      0  02:09       0.000     0.000
  YS02001586              0.54    642.38      0  02:26       0.523     0.000
  YS02001590              0.01      6.45      0  02:09       0.000     0.000
  YS02001600              0.01      1.69      0  02:09       0.000     0.000
  YS02001601              0.76   1598.16      0  02:25       1.685     0.000
  YS02001602              0.65     61.94      0  02:32       0.128     0.000
  YS02001610              0.54    947.99      0  02:27       0.891     0.000
  YS02001616              0.02      1.46      0  02:26       0.000     0.000
  YS02001619              0.06     68.34      0  02:25       0.008     0.000
  YS02001625              0.51   1498.04      0  02:27       1.379     0.000
  YS02001629              0.18    205.77      0  02:25       0.064     0.000
  YS02001644              0.23   1578.01      0  02:25       0.607     0.000
  YS02001770              0.03     73.76      0  02:25       0.004     0.000
  YS02001779              0.19    834.63      0  02:25       0.294     0.000
  YS02001890              0.22    525.97      0  02:25       0.174     0.000
  YS02001907              0.38   2577.41      0  02:25       1.713     0.000
  YS02001918              0.01     87.12      0  02:16       0.000     0.000
  YS02001920              0.01     16.01      0  02:16       0.000     0.000
  YS02001923              0.01     89.63      0  02:16       0.000     0.000
  YS02001926              0.01     24.67      0  02:16       0.000     0.000
  YS02001929              0.01    169.62      0  02:16       0.000     0.000
  YS02006553              0.01      1.66      0  02:13       0.000     0.000
  YSB1171                 0.35   1294.88      0  02:25       0.844     0.000
  
  
  **********************
  Storage Volume Summary
  **********************
  
  ------------------------------------------------------------------------------------------------
                         Average    Avg   Evap  Exfil     Maximum    Max    Time of Max    Maximum
                          Volume   Pcnt   Pcnt   Pcnt      Volume   Pcnt     Occurrence    Outflow
  Storage Unit           1000 m   Full   Loss   Loss     1000 m   Full    days hr:min        LPS
  ------------------------------------------------------------------------------------------------
  CC-storage               2.571   40.1    0.0    0.0       6.110   95.3       0  03:15    1766.00
  JK-storage               0.003    1.1    0.0    0.0       0.151   51.7       0  00:05    2300.00
  XR-storage               0.951   66.0    0.0    0.0       1.111   77.1       0  08:00     190.00
  
  
  ***********************
  Outfall Loading Summary
  ***********************
  
  -----------------------------------------------------------
                         Flow       Avg       Max       Total
                         Freq      Flow      Flow      Volume
  Outfall Node           Pcnt       LPS       LPS    10^6 ltr
  -----------------------------------------------------------
  CC-1                  37.41    484.45    683.00       3.866
  CC-2                  54.91    518.53    683.00       7.319
  JK-1                  71.75    142.30   1000.00       2.448
  JK-2                  34.32    261.71   1000.00       2.394
  WSC                  100.00    623.98   1547.64      15.869
  -----------------------------------------------------------
  System                59.68   2030.98   4180.65      31.896
  
  
  ********************
  Link Flow Summary
  ********************
  
  -----------------------------------------------------------------------------
                                 Maximum  Time of Max   Maximum    Max/    Max/
                                  |Flow|   Occurrence   |Veloc|    Full    Full
  Link                 Type          LPS  days hr:min     m/sec    Flow   Depth
  -----------------------------------------------------------------------------
  1                    CONDUIT   1547.64     0  02:27      3.72    0.54    0.52
  HS02004478WS02006287 CONDUIT   2303.99     0  02:21      2.57    0.64    1.00
  HS02004479HS02004480 CONDUIT    393.64     0  02:15      0.56    0.38    1.00
  HS02004480HS02004478 CONDUIT   2058.61     0  02:14      2.94    8.67    1.00
  HS02004770HS02004777 CONDUIT    694.23     0  02:11      0.99    1.27    1.00
  HS02004777HS02004785 CONDUIT    704.97     0  02:10      1.07    0.87    1.00
  HS02004785HS02004788 CONDUIT    635.79     0  02:12      1.35    4.79    1.00
  HS02004788HS02004792 CONDUIT    905.06     0  02:25      1.46    0.60    1.00
  HS02004792HS02004799 CONDUIT   1572.36     0  02:12      2.25    0.96    1.00
  HS02004799HS02004480 CONDUIT   1715.28     0  02:12      2.45    2.17    1.00
  HS02004802HS02004478 CONDUIT   1234.22     0  02:26      1.76    1.09    1.00
  HS02004807HS02004802 CONDUIT   1233.80     0  02:27      1.76    2.36    1.00
  HS02004817HS02004807 CONDUIT   1197.00     0  02:28      1.71    0.71    1.00
  HS02004817HS02004824 CONDUIT   1196.41     0  02:27      1.71    0.54    1.00
  HS02004824HS02004830 CONDUIT    589.08     0  02:25      0.84    0.77    1.00
  HS02004830HS02004837 CONDUIT    589.06     0  02:25      0.89    0.59    1.00
  HS02004837HS02004842 CONDUIT    763.79     0  02:14      1.09    0.46    1.00
  HS02004842HS02004848 CONDUIT    763.18     0  02:14      1.16    0.44    1.00
  HS02004848HS02004852 CONDUIT    994.09     0  02:14      1.54    1.12    1.00
  HS02004852HS02004856 CONDUIT    962.73     0  02:14      1.44    1.10    1.00
  HS02004856HS02004862 CONDUIT   1002.36     0  02:14      1.67    1.00    1.00
  HS02004862HS02004870 CONDUIT   1081.27     0  02:14      1.87    1.17    1.00
  HS02004870HS02004876 CONDUIT   1252.97     0  02:28      1.79    0.83    1.00
  HS02004876HS02004881 CONDUIT   1514.47     0  02:28      2.41   16.11    1.00
  HS02004881HS02006253 CONDUIT   1676.04     0  02:25      2.39    0.33    1.00
  HS02004901HS02004770 CONDUIT    265.79     0  02:38      0.38    1.00    1.00
  WS02001211WS02001212 CONDUIT    211.33     0  03:02      0.54    0.16    0.70
  WS02001212WS02001213 CONDUIT    216.50     0  03:01      1.04    0.33    0.57
  WS02001213WS02003059 CONDUIT    221.81     0  03:01      0.47    0.37    0.91
  WS02003059WS02003060 CONDUIT    227.57     0  03:00      0.66    0.15    0.82
  WS02003060WS02003069 CONDUIT   1546.04     0  02:25      2.10    0.61    0.62
  WS02003066WSF200     CONDUIT   1353.28     0  02:25      3.28    0.23    0.39
  WS02003067WS02003066 CONDUIT   1352.33     0  02:24      2.05    0.43    0.57
  WS02003069WS02003072 CONDUIT   1545.25     0  02:26      1.91    0.74    0.67
  WS02003072WS02003073 CONDUIT   1545.57     0  02:27      2.07    3.34    0.63
  WS02004138WS02004139 CONDUIT    190.00     0  00:31      2.17    0.04    0.42
  WS02004139WS02001211 CONDUIT    198.12     0  03:06      0.55    0.25    0.62
  WS02004401WS02004402 CONDUIT   1350.02     0  02:25      2.07    1.62    1.00
  WS02004402WS02004403 CONDUIT   1349.63     0  02:25      1.84    1.94    1.00
  WS02004403WS02004404 CONDUIT   1349.98     0  02:25      1.72    0.98    1.00
  WS02004404WS02004405 CONDUIT   1350.42     0  02:25      1.86   13.23    1.00
  WS02004405WS02004406 CONDUIT   1350.28     0  02:25      1.80    2.66    1.00
  WS02004406WS02004407 CONDUIT   1350.37     0  02:25      1.72    0.60    1.00
  WS02004407WS02004409 CONDUIT   1348.97     0  02:25      1.74    0.48    1.00
  WS02004409WS02004410 CONDUIT   1349.28     0  02:25      1.72    1.75    1.00
  WS02004410WS02004411 CONDUIT   1349.26     0  02:25      1.72    1.84    1.00
  WS02004411WS02004412 CONDUIT   1349.42     0  02:25      1.72    1.92    1.00
  WS02004412WS02004413 CONDUIT   1349.35     0  02:25      1.72    0.90    1.00
  WS02004413WS02003067 CONDUIT   1349.41     0  02:25      2.07    0.58    0.77
  WS02006109WS02006110 CONDUIT   1306.78     0  00:00      3.15    2.51    1.00
  WS02006110WS02006113 CONDUIT   1124.19     0  02:40      2.24    1.02    1.00
  WS02006111WS02006112 CONDUIT   2307.30     0  00:00      9.18    1.10    1.00
  WS02006112WS02006115 CONDUIT   2152.75     0  00:00      2.85    1.27    1.00
  WS02006113WS02006111 CONDUIT   1176.04     0  00:00      2.70    1.41    1.00
  WS02006115WS02006116 CONDUIT   1350.31     0  02:25      1.81    1.73    1.00
  WS02006116WS02004401 CONDUIT   1350.11     0  02:25      2.21    1.86    1.00
  WS02006228WS02006109 CONDUIT   1287.92     0  02:21      2.56    5.63    1.00
  WS02006229WS02006228 CONDUIT   1288.11     0  02:21      2.56    4.27    1.00
  WS02006230WS02006229 CONDUIT   1015.83     0  02:22      2.64   22.61    1.00
  WS02006231WS02006230 CONDUIT    453.51     0  02:13      1.34    6.88    1.00
  WS02006232WS02006231 CONDUIT    453.36     0  02:13      1.18    0.95    1.00
  WS02006234WS02006232 CONDUIT    453.09     0  02:49      1.18    0.92    1.00
  WS02006235WS02006234 CONDUIT    414.23     0  02:25      1.08    4.37    1.00
  WS02006238WS02006235 CONDUIT    415.74     0  02:31      1.23    0.93    1.00
  WS02006239WS02006238 CONDUIT    415.10     0  02:31      1.08    1.33    1.00
  WS02006240WS02006239 CONDUIT    414.90     0  02:33      1.09    1.31    1.00
  WS02006242WS02006240 CONDUIT    414.96     0  02:32      1.08    1.65    1.00
  WS02006243WS02006242 CONDUIT    371.08     0  05:15      1.14    0.79    1.00
  WS02006245WS02006243 CONDUIT    378.72     0  05:33      1.21    1.12    1.00
  WS02006247WS02006245 CONDUIT    388.79     0  05:33      1.19    3.08    1.00
  WS02006248WS02006247 CONDUIT    391.84     0  05:32      1.22    0.85    1.00
  WS02006249WS02006248 CONDUIT    399.43     0  05:32      1.27    2.19    1.00
  WS02006251WS02006249 CONDUIT   1382.67     0  02:25      3.59    3.99    1.00
  WS02006252WS02006251 CONDUIT   1298.45     0  00:05     20.66    4.77    1.00
  WS02006253WS02006251 CONDUIT   1723.12     0  02:25      4.48    5.17    1.00
  WS02006256WS02006235 CONDUIT    175.58     0  01:40      2.48    1.86    1.00
  WS02006280WS02006229 CONDUIT   2304.09     0  02:21      3.92    0.49    1.00
  WS02006284WS02006280 CONDUIT   2303.44     0  02:21      3.02    0.96    1.00
  WS02006287WS02006284 CONDUIT   2303.19     0  02:21      2.93    1.07    1.00
  WSF200WS02003060     CONDUIT   1356.75     0  02:25      2.32    0.30    0.51
  YS02001580YS02001583 CONDUIT     73.10     0  02:09      0.51    0.28    1.00
  YS02001583YS02001586 CONDUIT    117.18     0  02:09      0.51    0.18    1.00
  YS02001586YS02001590 CONDUIT    317.91     0  02:44      1.24    0.56    1.00
  YS02001590YS02001593 CONDUIT    317.94     0  02:29      1.12    2.00    1.00
  YS02001593YS02001596 CONDUIT    318.02     0  02:45      1.61    0.50    1.00
  YS02001596YS02001600 CONDUIT    317.93     0  02:43      1.12    0.62    1.00
  YS02001600YS02001601 CONDUIT    317.92     0  02:29      1.12    0.55    1.00
  YS02001601YS02001602 CONDUIT    491.98     0  02:09      1.74    1.78    1.00
  YS02001602YS02001605 CONDUIT    492.08     0  02:08      1.74   10.41    1.00
  YS02001605YS02001607 CONDUIT    492.29     0  02:08      1.74    2.70    1.00
  YS02001607YS02001610 CONDUIT    491.79     0  02:08      0.63    0.47    1.00
  YS02001610YS02001613 CONDUIT    612.15     0  02:27      0.78    0.71    1.00
  YS02001613YS02001616 CONDUIT    612.50     0  02:27      0.78    0.52    1.00
  YS02001616YS02001619 CONDUIT    611.85     0  02:26      0.78    1.06    1.00
  YS02001619YS02001622 CONDUIT   1053.39     0  02:27      1.34    1.55    1.00
  YS02001622YS02001625 CONDUIT   1053.55     0  02:27      1.34    0.56    1.00
  YS02001625YS02001629 CONDUIT    935.66     0  02:14      1.19    0.44    1.00
  YS02001629YS02163301 CONDUIT    935.53     0  02:14      1.19    1.15    1.00
  YS02001633YS02163601 CONDUIT   1371.46     0  02:14      1.75    1.44    1.00
  YS02001641YS02001644 CONDUIT   1371.04     0  02:14      1.75    4.43    1.00
  YS02001644YS02001647 CONDUIT   1765.17     0  02:15      2.25    1.04    1.00
  YS02001647YS02001649 CONDUIT   1770.76     0  02:15      2.32    0.93    1.00
  YS02001649YS02001757 CONDUIT   2043.10     0  02:15      2.60    1.24    1.00
  YS02001652YS02001649 CONDUIT   1131.11     0  02:25      1.44    0.56    1.00
  YS02001655YS02001652 CONDUIT   1131.09     0  02:25      1.44    0.55    1.00
  YS02001658YS02001655 CONDUIT   1131.28     0  02:25      1.82    0.48    1.00
  YS02001661YS02001658 CONDUIT   1130.86     0  02:25      2.28    0.44    1.00
  YS02001664YS02001661 CONDUIT   1129.88     0  02:25      2.28    0.35    0.86
  YS02001745YS02001748 CONDUIT    703.96     0  02:25      2.13    0.27    0.94
  YS02001748YS02001751 CONDUIT    704.59     0  02:25      1.65    0.36    1.00
  YS02001751YS02001754 CONDUIT    704.71     0  02:25      1.29    0.34    1.00
  YS02001754YS02001757 CONDUIT    704.87     0  02:25      0.90    0.28    1.00
  YS02001757CaochengTiaoxuchi CONDUIT   3592.22     0  02:23      6.01    1.55    1.00
  YS02001759YS02001757 CONDUIT   1495.49     0  02:24      1.90    1.06    1.00
  YS02001762YS02001759 CONDUIT    791.54     0  02:20      1.01    0.91    1.00
  YS02001765YS02001762 CONDUIT    792.53     0  02:20      1.01    0.74    1.00
  YS02001767YS02001765 CONDUIT    792.25     0  02:20      1.01    1.00    1.00
  YS02001770YS02001767 CONDUIT    791.74     0  02:20      1.01    3.14    1.00
  YS02001774YS02001770 CONDUIT    834.88     0  02:25      1.06    0.53    1.00
  YS02001779YS02001774 CONDUIT    834.67     0  02:25      1.06    0.42    1.00
  YS02001783YS02001784 CONDUIT   1170.73     0  02:24      2.33    1.61    1.00
  YS02001784YS02001785 CONDUIT   1171.42     0  02:24      2.33    2.73    1.00
  YS02001786YS02001788 CONDUIT   1170.96     0  02:24      2.50    2.26    0.89
  YS02001788YS02001790 CONDUIT   1183.77     0  02:23      2.73    0.87    0.84
  YS02001790YS02001791 CONDUIT   1293.79     0  02:23      3.43    1.41    0.70
  YS02001791YS02001793 CONDUIT   1250.06     0  02:24      6.78    0.54    0.43
  YS02001793JiankangQianchi CONDUIT   1296.39     0  02:23     24.82    0.10    0.50
  YS02001882YS02001884 CONDUIT     34.55     0  02:12      0.13    0.04    1.00
  YS02001884YS02001887 CONDUIT     37.41     0  02:10      0.09    0.05    1.00
  YS02001887YS02001890 CONDUIT   1042.32     0  02:25      1.33    1.78    1.00
  YS02001890YS02001895 CONDUIT    517.21     0  02:29      0.66    0.24    1.00
  YS02001895YS02001898 CONDUIT    517.50     0  02:29      0.66    0.90    1.00
  YS02001898YS02001901 CONDUIT    517.51     0  02:29      0.66    0.33    1.00
  YS02001901YS02001904 CONDUIT    517.54     0  02:29      0.66    0.80    1.00
  YS02001904YS02001907 CONDUIT    517.59     0  02:29      0.66    0.18    1.00
  YS02001907YS02006553 CONDUIT    803.91     0  02:39      0.89    0.95    1.00
  YS02001910YS02001907 CONDUIT   1820.91     0  02:25      2.32    1.03    1.00
  YS02001915YS02001910 CONDUIT   1821.48     0  02:25      2.32    0.90    1.00
  YS02001918YS02001915 CONDUIT    604.28     0  02:25      0.77    0.33    1.00
  YS02001920YS02001918 CONDUIT    603.98     0  02:25      0.77    0.58    1.00
  YS02001923YS02001920 CONDUIT    600.51     0  02:25      0.76    0.27    1.00
  YS02001926YS02001923 CONDUIT    598.46     0  02:25      0.94    0.85    1.00
  YS02001929YS02001926 CONDUIT    597.79     0  02:25      1.08    0.28    1.00
  YS02006553YS02006556 CONDUIT    804.12     0  02:39      1.02    0.69    1.00
  YS02006556YS02006558 CONDUIT    804.66     0  02:39      1.02    0.64    1.00
  YS02006558YS02006561 CONDUIT   1170.34     0  02:24      4.14    2.59    1.00
  YS02006561YS02001783 CONDUIT   1170.36     0  02:24      2.33    0.61    1.00
  YS02163301YS02001633 CONDUIT    935.36     0  02:14      1.19    0.88    1.00
  YS02163601YS02164001 CONDUIT   1371.60     0  02:14      1.75    1.22    1.00
  YS02164001YS02001641 CONDUIT   1370.85     0  02:14      1.75    1.87    1.00
  YSB1154YSB6556       CONDUIT    567.54     0  02:25      1.47    1.02    1.00
  YSB1171HS02004479    CONDUIT    393.13     0  02:15      0.78    0.26    1.00
  YSB1174YSB1171       CONDUIT    490.05     0  02:25      1.27    0.75    1.00
  YSB6556YSB1171       CONDUIT    568.20     0  02:25      1.48    0.58    1.00
  CC-R1                PUMP       683.00     0  01:46              1.00
  CC-R2                PUMP       683.00     0  00:20              1.00
  CC-S1                PUMP       200.00     0  00:05              1.00
  CC-S2                PUMP       200.00     0  01:30              1.00
  JK-R1                PUMP      1000.00     0  00:05              1.00
  JK-R2                PUMP      1000.00     0  02:20              1.00
  JK-S                 PUMP       300.00     0  01:30              1.00
  XR-1                 PUMP        95.00     0  00:10              1.00
  XR-2                 PUMP        95.00     0  00:29              1.00
  XR-3                 PUMP         0.00     0  00:00              0.00
  XR-4                 PUMP         0.00     0  00:00              0.00
  
  
  ***************************
  Flow Classification Summary
  ***************************
  
  -------------------------------------------------------------------------------------
                      Adjusted    ---------- Fraction of Time in Flow Class ---------- 
                       /Actual         Up    Down  Sub   Sup   Up    Down  Norm  Inlet 
  Conduit               Length    Dry  Dry   Dry   Crit  Crit  Crit  Crit  Ltd   Ctrl  
  -------------------------------------------------------------------------------------
  1                       1.00   0.00  0.00  0.00  0.00  1.00  0.00  0.00  0.45  0.00
  HS02004478WS02006287    1.00   0.16  0.00  0.00  0.66  0.18  0.00  0.00  0.58  0.00
  HS02004479HS02004480    1.00   0.04  0.00  0.00  0.96  0.00  0.00  0.00  0.11  0.00
  HS02004480HS02004478    1.00   0.13  0.00  0.00  0.61  0.00  0.00  0.25  0.00  0.00
  HS02004770HS02004777    1.00   0.00  0.13  0.00  0.87  0.00  0.00  0.00  0.03  0.00
  HS02004777HS02004785    1.00   0.00  0.00  0.00  1.00  0.00  0.00  0.00  0.12  0.00
  HS02004785HS02004788    1.00   0.00  0.00  0.00  1.00  0.00  0.00  0.00  0.00  0.00
  HS02004788HS02004792    1.00   0.00  0.00  0.00  0.99  0.01  0.00  0.00  0.90  0.00
  HS02004792HS02004799    1.00   0.00  0.00  0.00  0.99  0.01  0.00  0.00  0.85  0.00
  HS02004799HS02004480    1.00   0.00  0.03  0.00  0.84  0.00  0.12  0.00  0.00  0.00
  HS02004802HS02004478    1.00   0.13  0.01  0.00  0.86  0.00  0.00  0.00  0.02  0.00
  HS02004807HS02004802    1.00   0.13  0.00  0.00  0.85  0.00  0.00  0.02  0.00  0.00
  HS02004817HS02004807    1.00   0.00  0.13  0.00  0.87  0.00  0.00  0.00  0.01  0.00
  HS02004817HS02004824    1.00   0.00  0.00  0.00  1.00  0.00  0.00  0.00  0.81  0.00
  HS02004824HS02004830    1.00   0.00  0.00  0.00  1.00  0.00  0.00  0.00  0.01  0.00
  HS02004830HS02004837    1.00   0.00  0.00  0.00  1.00  0.00  0.00  0.00  0.87  0.00
  HS02004837HS02004842    1.00   0.00  0.00  0.00  0.99  0.01  0.00  0.00  0.11  0.00
  HS02004842HS02004848    1.00   0.00  0.13  0.00  0.87  0.00  0.00  0.00  0.54  0.00
  HS02004848HS02004852    1.00   0.13  0.00  0.00  0.87  0.00  0.00  0.00  0.69  0.00
  HS02004852HS02004856    1.00   0.13  0.01  0.00  0.86  0.00  0.00  0.00  0.66  0.00
  HS02004856HS02004862    1.00   0.00  0.16  0.00  0.84  0.00  0.00  0.00  0.73  0.00
  HS02004862HS02004870    1.00   0.00  0.00  0.00  1.00  0.00  0.00  0.00  0.03  0.00
  HS02004870HS02004876    1.00   0.00  0.00  0.00  1.00  0.00  0.00  0.00  0.85  0.00
  HS02004876HS02004881    1.00   0.01  0.00  0.00  0.84  0.15  0.00  0.00  0.00  0.00
  HS02004881HS02006253    1.00   0.02  0.03  0.00  0.49  0.00  0.00  0.46  0.41  0.00
  HS02004901HS02004770    1.00   0.13  0.00  0.00  0.87  0.00  0.00  0.00  0.00  0.00
  WS02001211WS02001212    1.00   0.00  0.02  0.00  0.98  0.00  0.00  0.00  0.00  0.00
  WS02001212WS02001213    1.00   0.02  0.00  0.00  0.41  0.00  0.56  0.00  0.00  0.00
  WS02001213WS02003059    1.00   0.00  0.01  0.00  0.99  0.00  0.00  0.00  0.00  0.00
  WS02003059WS02003060    1.00   0.00  0.00  0.00  1.00  0.00  0.00  0.00  0.03  0.00
  WS02003060WS02003069    1.00   0.00  0.00  0.00  0.97  0.03  0.00  0.00  0.37  0.00
  WS02003066WSF200        1.00   0.06  0.00  0.00  0.00  0.94  0.00  0.00  0.67  0.00
  WS02003067WS02003066    1.00   0.05  0.01  0.00  0.94  0.00  0.00  0.00  0.00  0.00
  WS02003069WS02003072    1.00   0.00  0.00  0.00  0.99  0.01  0.00  0.00  0.43  0.00
  WS02003072WS02003073    1.00   0.00  0.00  0.00  0.00  0.00  0.00  1.00  0.00  0.00
  WS02004138WS02004139    1.00   0.02  0.00  0.00  0.97  0.01  0.00  0.00  0.98  0.00
  WS02004139WS02001211    1.00   0.00  0.01  0.00  0.99  0.00  0.00  0.00  0.00  0.00
  WS02004401WS02004402    1.00   0.00  0.00  0.00  1.00  0.00  0.00  0.00  0.00  0.00
  WS02004402WS02004403    1.00   0.00  0.00  0.00  1.00  0.00  0.00  0.00  0.00  0.00
  WS02004403WS02004404    1.00   0.00  0.00  0.00  1.00  0.00  0.00  0.00  0.00  0.00
  WS02004404WS02004405    1.00   0.00  0.00  0.00  1.00  0.00  0.00  0.00  0.00  0.00
  WS02004405WS02004406    1.00   0.00  0.00  0.00  1.00  0.00  0.00  0.00  0.00  0.00
  WS02004406WS02004407    1.00   0.00  0.01  0.00  0.99  0.00  0.00  0.00  0.01  0.00
  WS02004407WS02004409    1.00   0.01  0.00  0.00  0.98  0.01  0.00  0.00  0.85  0.00
  WS02004409WS02004410    1.00   0.01  0.00  0.00  0.99  0.00  0.00  0.00  0.00  0.00
  WS02004410WS02004411    1.00   0.01  0.00  0.00  0.99  0.00  0.00  0.00  0.01  0.00
  WS02004411WS02004412    1.00   0.01  0.00  0.00  0.99  0.00  0.00  0.00  0.00  0.00
  WS02004412WS02004413    1.00   0.01  0.00  0.00  0.99  0.00  0.00  0.00  0.02  0.00
  WS02004413WS02003067    1.00   0.01  0.04  0.00  0.00  0.00  0.95  0.00  0.00  0.00
  WS02006109WS02006110    1.00   0.00  0.00  0.00  1.00  0.00  0.00  0.00  0.00  0.00
  WS02006110WS02006113    1.00   0.00  0.00  0.00  1.00  0.00  0.00  0.00  0.00  0.00
  WS02006111WS02006112    1.00   0.00  0.00  0.00  1.00  0.00  0.00  0.00  0.77  0.00
  WS02006112WS02006115    1.00   0.00  0.00  0.00  1.00  0.00  0.00  0.00  0.00  0.00
  WS02006113WS02006111    1.00   0.00  0.00  0.00  0.21  0.79  0.00  0.00  0.11  0.00
  WS02006115WS02006116    1.00   0.00  0.00  0.00  1.00  0.00  0.00  0.00  0.00  0.00
  WS02006116WS02004401    1.00   0.00  0.00  0.00  1.00  0.00  0.00  0.00  0.00  0.00
  WS02006228WS02006109    1.00   0.00  0.00  0.00  1.00  0.00  0.00  0.00  0.00  0.00
  WS02006229WS02006228    1.00   0.00  0.00  0.00  1.00  0.00  0.00  0.00  0.00  0.00
  WS02006230WS02006229    1.00   0.00  0.00  0.00  1.00  0.00  0.00  0.00  0.00  0.00
  WS02006231WS02006230    1.00   0.00  0.00  0.00  0.34  0.00  0.66  0.00  0.00  0.00
  WS02006232WS02006231    1.00   0.00  0.00  0.00  0.99  0.00  0.00  0.00  0.01  0.00
  WS02006234WS02006232    1.00   0.00  0.01  0.00  0.99  0.00  0.00  0.00  0.16  0.00
  WS02006235WS02006234    1.00   0.02  0.00  0.00  0.74  0.00  0.24  0.00  0.00  0.00
  WS02006238WS02006235    1.00   0.02  0.00  0.00  0.98  0.00  0.00  0.00  0.00  0.00
  WS02006239WS02006238    1.00   0.02  0.00  0.00  0.98  0.00  0.00  0.00  0.21  0.00
  WS02006240WS02006239    1.00   0.02  0.00  0.00  0.65  0.00  0.00  0.34  0.01  0.00
  WS02006242WS02006240    1.00   0.01  0.00  0.00  0.98  0.00  0.01  0.00  0.00  0.00
  WS02006243WS02006242    1.00   0.01  0.00  0.00  0.98  0.00  0.00  0.01  0.39  0.00
  WS02006245WS02006243    1.00   0.01  0.00  0.00  0.92  0.00  0.00  0.07  0.01  0.00
  WS02006247WS02006245    1.00   0.01  0.00  0.00  0.98  0.00  0.00  0.01  0.00  0.00
  WS02006248WS02006247    1.00   0.01  0.00  0.00  0.99  0.00  0.00  0.00  0.38  0.00
  WS02006249WS02006248    1.00   0.00  0.01  0.00  0.58  0.00  0.41  0.00  0.00  0.00
  WS02006251WS02006249    1.00   0.00  0.00  0.00  1.00  0.00  0.00  0.00  0.41  0.00
  WS02006252WS02006251    1.00   0.01  0.17  0.00  0.21  0.00  0.61  0.00  0.00  0.00
  WS02006253WS02006251    1.00   0.01  0.00  0.00  0.97  0.00  0.02  0.00  0.00  0.00
  WS02006256WS02006235    1.00   0.02  0.00  0.00  0.98  0.00  0.00  0.00  0.00  0.00
  WS02006280WS02006229    1.00   0.14  0.00  0.00  0.17  0.04  0.00  0.66  0.01  0.00
  WS02006284WS02006280    1.00   0.14  0.00  0.00  0.11  0.01  0.00  0.74  0.00  0.00
  WS02006287WS02006284    1.00   0.10  0.06  0.00  0.57  0.27  0.00  0.00  0.64  0.00
  WSF200WS02003060        1.00   0.00  0.06  0.00  0.65  0.29  0.00  0.00  0.53  0.00
  YS02001580YS02001583    1.00   0.26  0.53  0.00  0.21  0.00  0.00  0.00  0.62  0.00
  YS02001583YS02001586    1.00   0.40  0.34  0.00  0.26  0.00  0.00  0.00  0.62  0.00
  YS02001586YS02001590    1.00   0.13  0.00  0.00  0.46  0.04  0.00  0.38  0.38  0.00
  YS02001590YS02001593    1.00   0.13  0.01  0.00  0.13  0.00  0.73  0.00  0.00  0.00
  YS02001593YS02001596    1.00   0.13  0.00  0.00  0.17  0.01  0.00  0.68  0.04  0.00
  YS02001596YS02001600    1.00   0.14  0.00  0.00  0.27  0.01  0.00  0.59  0.07  0.00
  YS02001600YS02001601    1.00   0.13  0.01  0.00  0.86  0.00  0.00  0.00  0.55  0.00
  YS02001601YS02001602    1.00   0.13  0.01  0.00  0.87  0.00  0.00  0.00  0.00  0.00
  YS02001602YS02001605    1.00   0.13  0.00  0.00  0.86  0.00  0.00  0.00  0.00  0.00
  YS02001605YS02001607    1.00   0.14  0.00  0.00  0.86  0.00  0.00  0.00  0.00  0.00
  YS02001607YS02001610    1.00   0.13  0.01  0.00  0.86  0.00  0.00  0.00  0.01  0.00
  YS02001610YS02001613    1.00   0.13  0.00  0.00  0.87  0.00  0.00  0.00  0.00  0.00
  YS02001613YS02001616    1.00   0.13  0.00  0.00  0.87  0.00  0.00  0.00  0.00  0.00
  YS02001616YS02001619    1.00   0.13  0.00  0.00  0.87  0.00  0.00  0.00  0.00  0.00
  YS02001619YS02001622    1.00   0.13  0.00  0.00  0.87  0.00  0.00  0.00  0.26  0.00
  YS02001622YS02001625    1.00   0.13  0.00  0.00  0.87  0.00  0.00  0.00  0.04  0.00
  YS02001625YS02001629    1.00   0.13  0.05  0.00  0.27  0.00  0.55  0.00  0.00  0.00
  YS02001629YS02163301    1.00   0.15  0.01  0.00  0.84  0.00  0.00  0.00  0.00  0.00
  YS02001633YS02163601    1.00   0.00  0.01  0.00  0.99  0.00  0.00  0.00  0.15  0.00
  YS02001641YS02001644    1.00   0.00  0.01  0.00  0.99  0.00  0.00  0.00  0.00  0.00
  YS02001644YS02001647    1.00   0.00  0.17  0.00  0.83  0.00  0.00  0.00  0.00  0.00
  YS02001647YS02001649    1.00   0.00  0.17  0.00  0.74  0.09  0.00  0.00  0.45  0.00
  YS02001649YS02001757    1.00   0.00  0.00  0.00  0.92  0.08  0.00  0.00  0.50  0.00
  YS02001652YS02001649    1.00   0.00  0.00  0.00  0.97  0.03  0.00  0.00  0.58  0.00
  YS02001655YS02001652    1.00   0.00  0.00  0.00  0.35  0.02  0.00  0.63  0.08  0.00
  YS02001658YS02001655    1.00   0.00  0.14  0.00  0.73  0.13  0.00  0.00  0.58  0.00
  YS02001661YS02001658    1.00   0.14  0.00  0.00  0.60  0.26  0.00  0.00  0.61  0.00
  YS02001664YS02001661    1.00   0.13  0.00  0.00  0.79  0.08  0.00  0.00  0.85  0.00
  YS02001745YS02001748    1.00   0.00  0.00  0.00  0.20  0.00  0.00  0.80  0.07  0.00
  YS02001748YS02001751    1.00   0.00  0.00  0.00  0.86  0.14  0.00  0.00  0.63  0.00
  YS02001751YS02001754    1.00   0.00  0.00  0.00  0.31  0.01  0.00  0.67  0.05  0.00
  YS02001754YS02001757    1.00   0.00  0.00  0.00  1.00  0.00  0.00  0.00  0.65  0.00
  YS02001757CaochengTiaoxuchi    1.00   0.00  0.00  0.00  0.55  0.45  0.00  0.00  0.24  0.00
  YS02001759YS02001757    1.00   0.00  0.00  0.00  1.00  0.00  0.00  0.00  0.55  0.00
  YS02001762YS02001759    1.00   0.00  0.00  0.00  1.00  0.00  0.00  0.00  0.04  0.00
  YS02001765YS02001762    1.00   0.00  0.00  0.00  1.00  0.00  0.00  0.00  0.55  0.00
  YS02001767YS02001765    1.00   0.00  0.00  0.00  1.00  0.00  0.00  0.00  0.00  0.00
  YS02001770YS02001767    1.00   0.00  0.00  0.00  1.00  0.00  0.00  0.00  0.00  0.00
  YS02001774YS02001770    1.00   0.00  0.13  0.00  0.71  0.00  0.16  0.00  0.03  0.00
  YS02001779YS02001774    1.00   0.00  0.00  0.00  1.00  0.00  0.00  0.00  0.61  0.00
  YS02001783YS02001784    1.00   0.00  0.18  0.00  0.82  0.00  0.00  0.00  0.55  0.00
  YS02001784YS02001785    1.00   0.00  0.00  0.00  1.00  0.00  0.00  0.00  0.17  0.00
  YS02001786YS02001788    1.00   0.00  0.00  0.00  0.79  0.21  0.00  0.00  0.00  0.00
  YS02001788YS02001790    1.00   0.00  0.00  0.00  0.21  0.79  0.00  0.00  0.79  0.00
  YS02001790YS02001791    1.00   0.00  0.00  0.00  0.01  0.99  0.00  0.00  0.16  0.00
  YS02001791YS02001793    1.00   0.00  0.00  0.00  0.00  1.00  0.00  0.00  0.01  0.00
  YS02001793JiankangQianchi    1.00   0.00  0.00  0.00  0.24  0.76  0.00  0.00  0.30  0.00
  YS02001882YS02001884    1.00   0.15  0.01  0.00  0.84  0.00  0.00  0.00  0.00  0.00
  YS02001884YS02001887    1.00   0.06  0.05  0.00  0.89  0.00  0.00  0.00  0.00  0.00
  YS02001887YS02001890    1.00   0.00  0.00  0.00  0.97  0.00  0.03  0.00  0.00  0.00
  YS02001890YS02001895    1.00   0.00  0.16  0.00  0.84  0.00  0.00  0.00  0.00  0.00
  YS02001895YS02001898    1.00   0.16  0.00  0.00  0.82  0.00  0.02  0.00  0.00  0.00
  YS02001898YS02001901    1.00   0.16  0.00  0.00  0.83  0.00  0.00  0.00  0.01  0.00
  YS02001901YS02001904    1.00   0.16  0.00  0.00  0.84  0.00  0.00  0.00  0.00  0.00
  YS02001904YS02001907    1.00   0.00  0.16  0.00  0.84  0.00  0.00  0.00  0.00  0.00
  YS02001907YS02006553    1.00   0.00  0.02  0.00  0.98  0.00  0.00  0.00  0.00  0.00
  YS02001910YS02001907    1.00   0.00  0.00  0.00  0.97  0.00  0.00  0.03  0.12  0.00
  YS02001915YS02001910    1.00   0.00  0.00  0.00  0.97  0.03  0.00  0.00  0.16  0.00
  YS02001918YS02001915    1.00   0.00  0.00  0.00  0.98  0.02  0.00  0.00  0.75  0.00
  YS02001920YS02001918    1.00   0.00  0.00  0.00  1.00  0.00  0.00  0.00  0.01  0.00
  YS02001923YS02001920    1.00   0.00  0.00  0.00  1.00  0.00  0.00  0.00  0.92  0.00
  YS02001926YS02001923    1.00   0.00  0.07  0.00  0.07  0.00  0.86  0.00  0.00  0.00
  YS02001929YS02001926    1.00   0.00  0.13  0.00  0.87  0.00  0.00  0.00  0.81  0.00
  YS02006553YS02006556    1.00   0.01  0.00  0.00  0.99  0.00  0.00  0.00  0.03  0.00
  YS02006556YS02006558    1.00   0.00  0.00  0.00  1.00  0.00  0.00  0.00  0.00  0.00
  YS02006558YS02006561    1.00   0.18  0.00  0.00  0.06  0.76  0.00  0.00  0.18  0.00
  YS02006561YS02001783    1.00   0.18  0.00  0.00  0.10  0.72  0.00  0.00  0.68  0.00
  YS02163301YS02001633    1.00   0.00  0.15  0.00  0.85  0.00  0.00  0.00  0.00  0.00
  YS02163601YS02164001    1.00   0.00  0.08  0.00  0.92  0.00  0.00  0.00  0.00  0.00
  YS02164001YS02001641    1.00   0.01  0.07  0.00  0.92  0.00  0.00  0.00  0.05  0.00
  YSB1154YSB6556          1.00   0.12  0.00  0.00  0.88  0.00  0.00  0.00  0.02  0.00
  YSB1171HS02004479       1.00   0.04  0.00  0.00  0.95  0.00  0.00  0.01  0.10  0.00
  YSB1174YSB1171          1.00   0.05  0.04  0.00  0.91  0.00  0.00  0.00  0.00  0.00
  YSB6556YSB1171          1.00   0.04  0.08  0.00  0.88  0.00  0.00  0.00  0.00  0.00
  
  
  *************************
  Conduit Surcharge Summary
  *************************
  
  ----------------------------------------------------------------------------
                                                           Hours        Hours 
                         --------- Hours Full --------   Above Full   Capacity
  Conduit                Both Ends  Upstream  Dnstream   Normal Flow   Limited
  ----------------------------------------------------------------------------
  HS02004478WS02006287        0.53      0.53      0.72      0.01         0.01
  HS02004479HS02004480        0.72      0.72      0.74      0.01         0.01
  HS02004480HS02004478        0.64      0.71      0.64      1.76         0.64
  HS02004770HS02004777        0.61      0.61      0.62      0.12         0.07
  HS02004777HS02004785        0.56      0.56      0.62      0.01         0.01
  HS02004785HS02004788        0.55      0.56      0.55      1.42         0.47
  HS02004788HS02004792        0.55      0.55      0.68      0.01         0.01
  HS02004792HS02004799        0.68      0.68      0.82      0.01         0.01
  HS02004799HS02004480        0.71      0.71      0.82      0.92         0.01
  HS02004802HS02004478        0.65      0.65      0.73      0.17         0.01
  HS02004807HS02004802        0.70      0.70      0.73      0.32         0.33
  HS02004817HS02004807        0.70      0.70      1.28      0.01         0.01
  HS02004817HS02004824        0.55      0.55      1.28      0.01         0.01
  HS02004824HS02004830        0.52      0.52      0.55      0.01         0.01
  HS02004830HS02004837        0.48      0.48      0.52      0.01         0.01
  HS02004837HS02004842        0.48      0.48      0.62      0.01         0.01
  HS02004842HS02004848        0.43      0.43      0.62      0.01         0.01
  HS02004848HS02004852        0.43      0.43      0.45      0.03         0.01
  HS02004852HS02004856        0.45      0.45      0.47      0.02         0.01
  HS02004856HS02004862        0.43      0.43      0.47      0.01         0.01
  HS02004862HS02004870        0.47      0.47      0.48      0.21         0.21
  HS02004870HS02004876        0.48      0.48      0.55      0.01         0.01
  HS02004876HS02004881        0.51      0.55      0.51      1.52         0.51
  HS02004881HS02006253        0.51      0.51      1.62      0.01         0.01
  HS02004901HS02004770        0.61      0.61      0.61      0.02         0.01
  WS02003072WS02003073        0.01      0.01      0.01      3.27         0.01
  WS02004401WS02004402        1.71      1.71      1.73      1.53         1.50
  WS02004402WS02004403        1.73      1.73      1.74      1.70         1.69
  WS02004403WS02004404        1.74      1.74      1.82      0.01         0.03
  WS02004404WS02004405        1.81      1.82      1.81      4.80         1.81
  WS02004405WS02004406        1.78      1.81      1.78      1.99         1.78
  WS02004406WS02004407        0.03      0.03      1.78      0.01         0.01
  WS02004407WS02004409        0.03      0.03      1.17      0.01         0.01
  WS02004409WS02004410        1.04      1.17      1.04      1.61         1.04
  WS02004410WS02004411        0.95      1.04      0.95      1.66         0.95
  WS02004411WS02004412        0.86      0.95      0.86      1.69         0.86
  WS02004412WS02004413        0.86      0.86      1.39      0.01         0.01
  WS02004413WS02003067        0.01      0.01      1.39      0.01         0.01
  WS02006109WS02006110        1.95      1.96      2.27      1.96         0.01
  WS02006110WS02006113        1.34      1.34      2.25      0.30         0.01
  WS02006111WS02006112        1.33      1.33      2.82      0.01         0.01
  WS02006112WS02006115        1.62      1.62      2.03      0.01         0.01
  WS02006113WS02006111        1.34      1.34      1.34      1.52         1.34
  WS02006115WS02006116        1.64      1.64      1.64      1.61         1.59
  WS02006116WS02004401        1.70      1.70      1.71      1.68         1.67
  WS02006228WS02006109        2.22      2.27      2.22      3.68         2.22
  WS02006229WS02006228        2.21      2.22      2.21      2.73         2.21
  WS02006230WS02006229        2.37      2.56      2.37      4.73         1.22
  WS02006231WS02006230        1.84      1.84      1.90      4.49         1.11
  WS02006232WS02006231        1.88      1.88      2.09      0.01         0.16
  WS02006234WS02006232        1.98      1.98      2.09      0.01         0.01
  WS02006235WS02006234        1.95      1.95      1.99      4.26         1.08
  WS02006238WS02006235        2.01      2.01      2.04      0.01         0.40
  WS02006239WS02006238        2.00      2.00      2.02      1.02         0.02
  WS02006240WS02006239        1.93      1.94      1.95      1.01         0.02
  WS02006242WS02006240        1.92      1.92      2.00      1.65         0.95
  WS02006243WS02006242        1.87      1.87      1.96      0.01         0.01
  WS02006245WS02006243        1.84      1.84      1.86      0.12         0.02
  WS02006247WS02006245        1.82      1.84      1.83      3.94         0.50
  WS02006248WS02006247        1.79      1.79      1.83      0.01         0.01
  WS02006249WS02006248        1.77      1.77      1.79      2.70         0.01
  WS02006251WS02006249        1.76      1.76      1.79      1.35         1.24
  WS02006252WS02006251        1.76      1.77      1.85      0.37         0.12
  WS02006253WS02006251        1.76      1.76      1.78      0.85         0.02
  WS02006256WS02006235        4.53      4.54      5.79      0.73         0.01
  WS02006280WS02006229        0.87      0.87      1.00      0.01         0.01
  WS02006284WS02006280        0.75      0.75      0.84      0.01         0.01
  WS02006287WS02006284        0.63      0.63      0.76      0.36         0.36
  YS02001580YS02001583        0.68      0.68      0.75      0.01         0.01
  YS02001583YS02001586        0.69      0.69      0.84      0.01         0.01
  YS02001586YS02001590        0.85      0.85      0.93      0.01         0.01
  YS02001590YS02001593        0.93      0.93      0.95      0.92         0.01
  YS02001593YS02001596        0.95      0.95      1.06      0.01         0.01
  YS02001596YS02001600        1.12      1.12      1.34      0.01         0.01
  YS02001600YS02001601        1.43      1.43      1.85      0.01         0.01
  YS02001601YS02001602        1.72      1.72      1.89      1.18         0.01
  YS02001602YS02001605        1.67      1.67      1.72      2.49         0.01
  YS02001605YS02001607        1.62      1.67      1.69      1.43         1.27
  YS02001607YS02001610        0.98      0.98      1.02      0.01         0.01
  YS02001610YS02001613        0.98      0.98      1.02      0.01         0.01
  YS02001613YS02001616        0.94      0.94      0.98      0.01         0.01
  YS02001616YS02001619        0.92      0.92      0.94      0.05         0.08
  YS02001619YS02001622        0.92      0.92      0.93      0.85         0.75
  YS02001622YS02001625        0.93      0.93      1.29      0.01         0.01
  YS02001625YS02001629        0.87      0.87      1.29      0.01         0.01
  YS02001629YS02163301        1.33      1.33      1.38      0.12         0.18
  YS02001633YS02163601        1.45      1.45      1.56      0.33         0.33
  YS02001641YS02001644        1.43      1.45      1.43      1.56         1.12
  YS02001644YS02001647        1.09      1.09      1.43      0.05         0.01
  YS02001647YS02001649        1.09      1.09      1.38      0.01         0.01
  YS02001649YS02001757        1.36      1.38      1.53      0.17         0.09
  YS02001652YS02001649        1.07      1.07      1.38      0.01         0.01
  YS02001655YS02001652        0.50      0.50      1.05      0.01         0.01
  YS02001658YS02001655        0.25      0.25      0.50      0.01         0.01
  YS02001661YS02001658        0.08      0.08      0.25      0.01         0.01
  YS02001664YS02001661        0.01      0.01      0.11      0.01         0.01
  YS02001745YS02001748        0.01      0.01      0.16      0.01         0.01
  YS02001748YS02001751        0.22      0.22      0.32      0.01         0.01
  YS02001751YS02001754        0.32      0.32      1.00      0.01         0.01
  YS02001754YS02001757        1.04      1.04      1.53      0.01         0.01
  YS02001757CaochengTiaoxuchi        1.38      1.53      2.36      0.44         0.22
  YS02001759YS02001757        1.38      1.38      1.53      0.09         0.09
  YS02001762YS02001759        1.33      1.33      1.38      0.01         0.02
  YS02001765YS02001762        1.26      1.26      1.33      0.01         0.01
  YS02001767YS02001765        1.21      1.21      1.26      0.01         0.04
  YS02001770YS02001767        1.20      1.20      1.21      0.60         0.56
  YS02001774YS02001770        1.16      1.16      1.30      0.01         0.01
  YS02001779YS02001774        0.86      0.86      1.30      0.01         0.01
  YS02001783YS02001784        0.56      0.59      0.56      0.76         0.56
  YS02001784YS02001785        0.45      0.56      0.45      1.02         0.45
  YS02001786YS02001788        0.01      0.45      0.01      0.88         0.01
  YS02001790YS02001791        0.01      0.01      0.01      0.55         0.01
  YS02001793JiankangQianchi        0.01      0.01      0.11      0.01         0.01
  YS02001882YS02001884        0.53      0.53      0.54      0.01         0.01
  YS02001884YS02001887        0.56      0.56      0.58      0.01         0.01
  YS02001887YS02001890        0.59      0.59      0.60      0.16         0.01
  YS02001890YS02001895        0.52      0.52      0.62      0.01         0.01
  YS02001895YS02001898        0.51      0.51      0.52      0.01         0.01
  YS02001898YS02001901        0.52      0.52      0.56      0.01         0.01
  YS02001901YS02001904        0.55      0.55      0.56      0.01         0.01
  YS02001904YS02001907        0.55      0.55      0.86      0.01         0.01
  YS02001907YS02006553        1.03      1.03      1.11      0.01         0.01
  YS02001910YS02001907        0.62      0.62      0.85      0.03         0.03
  YS02001915YS02001910        0.52      0.52      0.62      0.01         0.01
  YS02001918YS02001915        0.44      0.44      0.52      0.01         0.01
  YS02001920YS02001918        0.44      0.44      0.45      0.01         0.01
  YS02001923YS02001920        0.40      0.40      0.45      0.01         0.01
  YS02001926YS02001923        0.15      0.15      0.19      0.01         0.01
  YS02001929YS02001926        0.05      0.05      0.19      0.01         0.01
  YS02006553YS02006556        0.72      0.72      0.87      0.01         0.01
  YS02006556YS02006558        0.80      0.80      0.88      0.01         0.01
  YS02006558YS02006561        0.47      0.71      0.47      0.97         0.47
  YS02006561YS02001783        0.40      0.40      0.59      0.01         0.01
  YS02163301YS02001633        1.38      1.38      1.48      0.01         0.01
  YS02163601YS02164001        1.43      1.43      1.56      0.14         0.01
  YS02164001YS02001641        1.43      1.43      1.45      0.68         0.62
  YSB1154YSB6556              0.79      0.79      0.95      0.01         0.01
  YSB1171HS02004479           0.67      0.67      0.95      0.01         0.01
  YSB1174YSB1171              0.86      0.86      1.20      0.01         0.01
  YSB6556YSB1171              0.79      0.79      1.35      0.01         0.01
  
  
  ***************
  Pumping Summary
  ***************
  
  ---------------------------------------------------------------------------------------------------------
                                                  Min       Avg       Max     Total     Power    % Time Off
                        Percent   Number of      Flow      Flow      Flow    Volume     Usage    Pump Curve
  Pump                 Utilized   Start-Ups       LPS       LPS       LPS  10^6 ltr     Kw-hr    Low   High
  ---------------------------------------------------------------------------------------------------------
  CC-R1                   46.87          14      0.00    484.45    683.00     3.866     68.60    0.0   77.8
  CC-R2                   68.75          15      0.00    518.53    683.00     7.316    127.34    0.0   83.7
  CC-S1                   26.04          15      0.00    196.64    200.00     1.443      8.65    0.0   36.3
  CC-S2                   31.25          14      0.00    190.86    200.00     1.613     10.20    0.0   51.2
  JK-R1                   56.25          11      0.00    142.30   1000.00     2.455      6.19    0.0    0.0
  JK-R2                   25.00          12      0.00    261.71   1000.00     2.394      6.03    0.0    0.0
  JK-S                    54.17          13      0.00     78.44    300.00     1.270     28.25    0.0    0.0
  XR-1                    97.91           1      0.00     95.00     95.00     2.679      9.63    0.0    0.0
  XR-2                    93.95           1      0.00     95.00     95.00     2.570      8.79    0.0    0.0
  XR-3                     0.00           0      0.00      0.00      0.00     0.000      0.00    0.0    0.0
  XR-4                     0.00           0      0.00      0.00      0.00     0.000      0.00    0.0    0.0
  

  Analysis begun on:  Thu Jun 15 19:51:47 2023
  Analysis ended on:  Thu Jun 15 19:51:58 2023
  Total elapsed time: 00:00:11