
  OWA STORM WATER MANAGEMENT MODEL - VERSION v5.1.14 (OWA 2022-07-31)
  --------------------------------------------------------------

  WARNING 04: minimum elevation drop used for Conduit WS02004404WS02004405
  WARNING 03: negative offset ignored for Link YS02001904YS02001907
  
  *********************************************************
  NOTE: The summary statistics displayed in this report are
  based on results found at every computational time step,  
  not just on results from each reporting time step.
  *********************************************************
  
  ****************
  Analysis Options
  ****************
  Flow Units ............... LPS
  Process Models:
    Rainfall/Runoff ........ YES
    RDII ................... NO
    Snowmelt ............... NO
    Groundwater ............ NO
    Flow Routing ........... YES
    Ponding Allowed ........ NO
    Water Quality .......... NO
  Infiltration Method ...... HORTON
  Flow Routing Method ...... DYNWAVE
  Surcharge Method ......... EXTRAN
  Starting Date ............ 08/28/2015 08:00:00
  Ending Date .............. 08/28/2015 16:00:00
  Antecedent Dry Days ...... 8.0
  Report Time Step ......... 00:01:00
  Wet Time Step ............ 00:01:00
  Dry Time Step ............ 00:01:00
  Routing Time Step ........ 30.00 sec
  Variable Time Step ....... YES
  Maximum Trials ........... 8
  Number of Threads ........ 4
  Head Tolerance ........... 0.001500 m
  
  
  **************************        Volume         Depth
  Runoff Quantity Continuity     hectare-m            mm
  **************************     ---------       -------
  Initial LID Storage ......         0.049         1.488
  Total Precipitation ......         2.565        77.326
  Evaporation Loss .........         0.000         0.000
  Infiltration Loss ........         0.077         2.333
  Surface Runoff ...........         1.926        58.054
  Final Storage ............         0.612        18.457
  Continuity Error (%) .....        -0.039
  
  
  **************************        Volume        Volume
  Flow Routing Continuity        hectare-m      10^6 ltr
  **************************     ---------     ---------
  Dry Weather Inflow .......         0.025         0.251
  Wet Weather Inflow .......         1.927        19.271
  Groundwater Inflow .......         0.000         0.000
  RDII Inflow ..............         0.000         0.000
  External Inflow ..........         0.083         0.834
  External Outflow .........         1.462        14.623
  Flooding Loss ............         0.618         6.177
  Evaporation Loss .........         0.000         0.000
  Exfiltration Loss ........         0.000         0.000
  Initial Stored Volume ....         0.243         2.431
  Final Stored Volume ......         0.225         2.254
  Continuity Error (%) .....        -1.168
  
  
  *************************
  Highest Continuity Errors
  *************************
  Node YS02001583 (-12.68%)
  Node YS02001884 (4.58%)
  
  
  ***************************
  Time-Step Critical Elements
  ***************************
  Link WS02006252WS02006251 (46.26%)
  Link WS02004404WS02004405 (25.10%)
  Link YS02001791YS02001793 (6.33%)
  Link WS02003066WSF200 (5.64%)
  Link WS02006238WS02006235 (5.25%)
  
  
  ********************************
  Highest Flow Instability Indexes
  ********************************
  Link WS02006113WS02006111 (40)
  Link WS02006111WS02006112 (23)
  Link WS02006238WS02006235 (18)
  Link WS02006252WS02006251 (17)
  Link WS02006235WS02006234 (13)
  
  
  *************************
  Routing Time Step Summary
  *************************
  Minimum Time Step           :     0.01 sec
  Average Time Step           :     2.29 sec
  Maximum Time Step           :    30.00 sec
  Percent in Steady State     :    -0.00
  Average Iterations per Step :     3.00
  Percent Not Converging      :    10.85
  
  
  ***************************
  Subcatchment Runoff Summary
  ***************************
  
  ------------------------------------------------------------------------------------------------------------------------------
                            Total      Total      Total      Total     Imperv       Perv      Total       Total     Peak  Runoff
                           Precip      Runon       Evap      Infil     Runoff     Runoff     Runoff      Runoff   Runoff   Coeff
  Subcatchment                 mm         mm         mm         mm         mm         mm         mm    10^6 ltr      LPS
  ------------------------------------------------------------------------------------------------------------------------------
  sub60                     81.29       0.00       0.00       1.40      54.29       6.13      60.42        0.79   541.27   0.743
  sub61                     81.29       0.00       0.00       2.15      54.24       9.15      63.39        1.16   784.59   0.780
  sub62                     81.29       0.00       0.00       0.95      57.83       4.16      61.99        1.70  1075.76   0.763
  sub63                     81.29       0.00       0.00       3.91      46.46      15.39      61.85        1.40   871.53   0.761
  sub64                     81.29       0.00       0.00       1.88      52.91       7.62      60.52        1.45   866.68   0.745
  sub65                     81.29       0.00       0.00       1.73      57.11       6.96      64.06        1.76  1011.09   0.788
  sub66                     81.29       0.00       0.00       4.52      44.94      14.17      59.11        2.76  1287.93   0.727
  sub67                     66.00       0.00       0.00       0.94      47.94       3.32      51.25        0.95   665.26   0.777
  sub68                     66.00       0.00       0.00       1.65      42.34       5.38      47.72        1.31   870.86   0.723
  sub69                     81.29       0.00       0.00       1.50      54.68       8.16      62.84        2.33  1313.17   0.773
  sub70                     81.29       0.00       0.00       4.98      43.82      17.64      61.46        1.78   742.66   0.756
  sub71                     66.00       0.00       0.00       0.88      42.48       2.89      45.37        1.19   726.55   0.687
  sub72                     66.00       0.00       0.00       0.84      45.88       2.69      48.57        0.67   377.27   0.736
  

  ***********************
  LID Performance Summary
  ***********************

  --------------------------------------------------------------------------------------------------------------------
                                         Total      Evap     Infil   Surface    Drain    Initial     Final  Continuity
                                        Inflow      Loss      Loss   Outflow   Outflow   Storage   Storage       Error
  Subcatchment      LID Control             mm        mm        mm        mm        mm        mm        mm           %
  --------------------------------------------------------------------------------------------------------------------
  sub60             GreenRoof            81.29      0.00      0.00      0.00      0.00      7.05     88.39       -0.05
  sub61             GreenRoof            81.29      0.00      0.00      0.00      0.00      7.05     88.39       -0.05
  sub62             GreenRoof            81.29      0.00      0.00      0.00      0.00      7.05     88.39       -0.05
  sub63             GreenRoof            81.29      0.00      0.00      0.00      0.00      7.05     88.39       -0.05
  sub64             GreenRoof            81.29      0.00      0.00      0.00      0.00      7.05     88.39       -0.05
  sub65             GreenRoof            81.29      0.00      0.00      0.00      0.00      7.05     88.39       -0.05
  sub66             GreenRoof            81.29      0.00      0.00      0.00      0.00      7.05     88.39       -0.05
  sub67             GreenRoof            66.00      0.00      0.00      0.00      0.00      7.05     73.16       -0.15
  sub68             GreenRoof            66.00      0.00      0.00      0.00      0.00      7.05     73.16       -0.15
  sub69             GreenRoof            81.29      0.00      0.00      0.00      0.00      7.05     88.39       -0.05
  sub70             GreenRoof            81.29      0.00      0.00      0.00      0.00      7.05     88.39       -0.05
  sub71             GreenRoof            66.00      0.00      0.00      0.00      0.00      7.05     73.16       -0.15
  sub72             GreenRoof            66.00      0.00      0.00      0.00      0.00      7.05     73.16       -0.15
  
  ******************
  Node Depth Summary
  ******************
  
  ---------------------------------------------------------------------------------
                                 Average  Maximum  Maximum  Time of Max    Reported
                                   Depth    Depth      HGL   Occurrence   Max Depth
  Node                 Type       Meters   Meters   Meters  days hr:min      Meters
  ---------------------------------------------------------------------------------
  WS02003060           JUNCTION     0.21     0.38     5.32     0  02:44        0.38
  WS02003066           JUNCTION     0.18     0.30     5.85     0  02:28        0.30
  WS02003067           JUNCTION     0.49     0.70     6.02     0  02:28        0.70
  WS02003069           JUNCTION     0.24     0.43     5.01     0  02:45        0.43
  WS02003072           JUNCTION     0.30     0.50     4.87     0  02:46        0.50
  WS02003073           JUNCTION     0.17     0.30     4.36     0  02:47        0.30
  WS02004401           JUNCTION     0.57     0.85     6.85     0  02:02        0.85
  WS02004402           JUNCTION     0.60     0.88     6.84     0  02:02        0.88
  WS02004403           JUNCTION     0.63     0.89     6.82     0  02:02        0.89
  WS02004404           JUNCTION     0.71     0.96     6.81     0  02:02        0.96
  WS02004405           JUNCTION     0.70     0.96     6.81     0  02:02        0.96
  WS02004406           JUNCTION     0.72     0.96     6.79     0  02:03        0.96
  WS02004407           JUNCTION     0.16     0.30     6.61     0  02:26        0.30
  WS02004409           JUNCTION     0.36     0.67     6.44     0  02:27        0.67
  WS02004410           JUNCTION     0.39     0.68     6.40     0  02:27        0.68
  WS02004411           JUNCTION     0.41     0.69     6.37     0  02:27        0.69
  WS02004412           JUNCTION     0.44     0.70     6.34     0  02:27        0.70
  WS02004413           JUNCTION     0.60     0.86     6.33     0  02:28        0.86
  WS02006109           JUNCTION     0.62     1.12     7.73     0  01:46        0.98
  WS02006110           JUNCTION     0.63     1.03     7.61     0  01:46        0.93
  WS02006111           JUNCTION     0.16     0.90     7.60     0  00:00        0.40
  WS02006112           JUNCTION     0.72     2.68     8.56     0  00:00        1.14
  WS02006113           JUNCTION     0.25     1.40     8.29     0  00:00        0.46
  WS02006115           JUNCTION     0.45     1.65     7.79     0  00:00        0.86
  WS02006116           JUNCTION     0.54     1.06     7.10     0  00:00        0.83
  WS02006228           JUNCTION     0.61     1.18     7.83     0  01:46        1.02
  WS02006229           JUNCTION     0.58     1.19     7.88     0  01:46        1.04
  WS02006230           JUNCTION     0.58     1.33     8.07     0  01:46        1.10
  WS02006231           JUNCTION     0.39     1.07     8.20     0  01:46        0.85
  WS02006232           JUNCTION     0.53     1.37     8.40     0  01:46        1.27
  WS02006234           JUNCTION     0.45     1.59     8.74     0  01:46        1.59
  WS02006235           JUNCTION     0.49     1.84     9.01     0  01:46        1.84
  WS02006238           JUNCTION     0.52     1.93     9.07     0  01:46        1.93
  WS02006239           JUNCTION     0.49     1.97     9.17     0  01:46        1.97
  WS02006240           JUNCTION     0.46     1.86     9.15     0  01:46        1.86
  WS02006242           JUNCTION     0.52     1.55     8.82     0  01:46        1.55
  WS02006243           JUNCTION     0.44     1.43     8.85     0  01:46        1.43
  WS02006245           JUNCTION     0.44     1.28     8.77     0  01:46        1.28
  WS02006247           JUNCTION     0.46     1.22     8.72     0  01:46        1.22
  WS02006248           JUNCTION     0.42     1.10     8.69     0  01:46        1.10
  WS02006249           JUNCTION     0.45     1.09     8.69     0  01:43        1.09
  WS02006251           JUNCTION     0.45     1.23     8.90     0  01:43        1.12
  WS02006252           JUNCTION     0.34     1.50     9.74     0  01:38        0.72
  WS02006256           JUNCTION     0.97     2.35     9.28     0  00:40        2.35
  WSF200               JUNCTION     0.15     0.29     5.52     0  02:40        0.29
  YS02001580           JUNCTION     0.09     1.05     9.59     0  01:34        0.78
  YS02001583           JUNCTION     0.12     1.14     9.64     0  01:34        0.83
  YS02001586           JUNCTION     0.20     1.13     9.30     0  01:33        1.13
  YS02001590           JUNCTION     0.29     1.40     9.26     0  01:32        1.40
  YS02001593           JUNCTION     0.23     1.46     9.32     0  01:46        1.46
  YS02001596           JUNCTION     0.32     1.80     9.22     0  01:46        1.80
  YS02001600           JUNCTION     0.40     1.87     9.00     0  01:32        1.87
  YS02001601           JUNCTION     0.56     2.06     8.90     0  01:32        2.06
  YS02001602           JUNCTION     0.48     1.87     8.77     0  01:34        1.87
  YS02001605           JUNCTION     0.44     1.78     8.68     0  01:34        1.78
  YS02001607           JUNCTION     0.41     1.68     8.53     0  01:34        1.68
  YS02001610           JUNCTION     0.44     1.68     8.48     0  01:34        1.68
  YS02001613           JUNCTION     0.41     1.70     8.54     0  02:16        1.70
  YS02001616           JUNCTION     0.36     1.61     8.52     0  01:34        1.61
  YS02001619           JUNCTION     0.34     1.61     8.54     0  01:34        1.61
  YS02001622           JUNCTION     0.33     1.62     8.52     0  01:34        1.62
  YS02001625           JUNCTION     0.52     1.78     8.38     0  01:34        1.78
  YS02001629           JUNCTION     0.43     1.85     8.40     0  01:34        1.85
  YS02001633           JUNCTION     0.50     2.08     8.53     0  01:36        2.08
  YS02001641           JUNCTION     0.48     2.10     8.54     0  01:46        2.10
  YS02001644           JUNCTION     0.47     1.92     8.35     0  01:36        1.92
  YS02001647           JUNCTION     0.30     1.83     8.44     0  01:36        1.73
  YS02001649           JUNCTION     0.35     2.05     8.44     0  01:36        1.95
  YS02001652           JUNCTION     0.26     2.16     8.76     0  01:36        1.84
  YS02001655           JUNCTION     0.20     2.20     9.05     0  01:36        1.68
  YS02001658           JUNCTION     0.14     2.30     9.44     0  01:36        1.47
  YS02001661           JUNCTION     0.15     2.46     9.86     0  01:37        1.28
  YS02001664           JUNCTION     0.07     1.20     9.13     0  01:37        0.84
  YS02001745           JUNCTION     0.08     2.35     9.87     0  01:37        0.72
  YS02001748           JUNCTION     0.14     2.27     9.35     0  01:36        1.15
  YS02001751           JUNCTION     0.17     2.20     9.08     0  01:36        1.34
  YS02001754           JUNCTION     0.23     2.20     8.81     0  01:36        1.59
  YS02001757           JUNCTION     0.36     2.21     8.47     0  01:36        1.94
  YS02001759           JUNCTION     0.32     2.21     8.57     0  01:36        1.95
  YS02001762           JUNCTION     0.31     2.15     8.55     0  01:36        1.93
  YS02001765           JUNCTION     0.30     2.10     8.55     0  01:36        1.92
  YS02001767           JUNCTION     0.30     2.03     8.52     0  01:36        1.92
  YS02001770           JUNCTION     0.31     1.95     8.44     0  01:36        1.95
  YS02001774           JUNCTION     0.36     2.05     8.47     0  01:36        2.00
  YS02001779           JUNCTION     0.21     1.68     8.37     0  01:36        1.68
  YS02001783           JUNCTION     0.19     1.26     7.40     0  02:20        1.26
  YS02001784           JUNCTION     0.21     1.14     7.21     0  02:20        1.14
  YS02001786           JUNCTION     0.18     0.89     6.92     0  02:19        0.88
  YS02001788           JUNCTION     0.13     0.62     6.60     0  02:23        0.62
  YS02001790           JUNCTION     0.15     0.72     6.37     0  02:25        0.72
  YS02001791           JUNCTION     0.09     0.44     5.91     0  02:24        0.44
  YS02001793           JUNCTION     0.05     0.24     5.07     0  02:20        0.24
  YS02001882           JUNCTION     0.24     1.65     8.36     0  02:19        1.64
  YS02001884           JUNCTION     0.32     1.73     8.35     0  02:21        1.73
  YS02001887           JUNCTION     0.39     1.82     8.36     0  02:21        1.82
  YS02001890           JUNCTION     0.42     1.81     8.32     0  02:19        1.81
  YS02001895           JUNCTION     0.22     1.57     8.31     0  02:24        1.57
  YS02001898           JUNCTION     0.22     1.57     8.30     0  02:20        1.57
  YS02001901           JUNCTION     0.30     1.68     8.29     0  02:19        1.68
  YS02001904           JUNCTION     0.29     1.65     8.28     0  02:21        1.64
  YS02001907           JUNCTION     0.58     1.96     8.25     0  02:19        1.96
  YS02001910           JUNCTION     0.39     1.98     8.49     0  02:20        1.85
  YS02001915           JUNCTION     0.25     1.93     8.65     0  02:20        1.71
  YS02001918           JUNCTION     0.14     1.81     8.88     0  02:20        1.39
  YS02001920           JUNCTION     0.22     2.05     9.06     0  02:20        1.46
  YS02001923           JUNCTION     0.10     1.93     9.19     0  02:20        1.22
  YS02001926           JUNCTION     0.14     1.83     9.27     0  02:20        1.11
  YS02001929           JUNCTION     0.07     1.78     9.47     0  02:20        0.95
  YS02006553           JUNCTION     0.58     1.97     8.26     0  02:23        1.97
  YS02006556           JUNCTION     0.55     1.95     8.26     0  02:24        1.95
  YS02006558           JUNCTION     0.60     2.00     8.26     0  02:24        2.00
  YS02006561           JUNCTION     0.12     0.93     7.59     0  02:19        0.92
  YS02163301           JUNCTION     0.45     1.95     8.47     0  01:36        1.95
  YS02163601           JUNCTION     0.53     2.08     8.48     0  01:36        2.04
  YS02164001           JUNCTION     0.47     2.10     8.56     0  01:46        2.10
  CC-1                 OUTFALL      0.00     0.00     0.00     0  00:00        0.00
  CC-2                 OUTFALL      0.00     0.00     0.00     0  00:00        0.00
  JK-1                 OUTFALL      0.00     0.00     0.00     0  00:00        0.00
  JK-2                 OUTFALL      0.00     0.00     0.00     0  00:00        0.00
  WSC                  OUTFALL      0.17     0.30     0.97     0  02:47        0.30
  CC-storage           STORAGE      0.85     1.68     7.18     0  02:12        1.68
  JK-storage           STORAGE      2.78     4.22     5.02     0  02:40        4.17
  
  
  *******************
  Node Inflow Summary
  *******************
  
  -------------------------------------------------------------------------------------------------
                                  Maximum  Maximum                  Lateral       Total        Flow
                                  Lateral    Total  Time of Max      Inflow      Inflow     Balance
                                   Inflow   Inflow   Occurrence      Volume      Volume       Error
  Node                 Type           LPS      LPS  days hr:min    10^6 ltr    10^6 ltr     Percent
  -------------------------------------------------------------------------------------------------
  WS02003060           JUNCTION     16.53   553.49     0  02:44       0.476        4.94       0.044
  WS02003066           JUNCTION      0.00   536.84     0  02:28           0        4.47       0.027
  WS02003067           JUNCTION      0.00   536.83     0  02:28           0        4.47       0.089
  WS02003069           JUNCTION      0.32   553.76     0  02:45     0.00922        4.95       0.069
  WS02003072           JUNCTION      0.00   553.68     0  02:46           0        4.95       0.126
  WS02003073           JUNCTION      1.82   555.44     0  02:46      0.0524        4.99       0.100
  WS02004401           JUNCTION      0.00  1677.78     0  00:00           0        4.58       0.242
  WS02004402           JUNCTION      0.00  1171.33     0  00:01           0        4.56       0.237
  WS02004403           JUNCTION      0.00   884.75     0  00:01           0        4.55       0.233
  WS02004404           JUNCTION      0.16   832.59     0  00:01     0.00467        4.55       0.193
  WS02004405           JUNCTION      0.04   776.49     0  00:01      0.0011        4.54       0.268
  WS02004406           JUNCTION      0.00   711.76     0  00:02           0        4.53       0.471
  WS02004407           JUNCTION      0.00   537.54     0  02:26           0         4.5       0.019
  WS02004409           JUNCTION      0.00   537.36     0  02:26           0         4.5       0.049
  WS02004410           JUNCTION      0.00   537.17     0  02:27           0         4.5       0.088
  WS02004411           JUNCTION      0.00   537.04     0  02:27           0         4.5       0.117
  WS02004412           JUNCTION      0.00   536.97     0  02:43           0        4.49       0.154
  WS02004413           JUNCTION      0.00   536.91     0  02:28           0        4.49       0.286
  WS02006109           JUNCTION      1.23  1308.01     0  00:00      0.0354        4.51       0.244
  WS02006110           JUNCTION      0.00   581.18     0  01:46           0        4.47      -0.819
  WS02006111           JUNCTION      0.00  1176.04     0  00:00           0        4.51      -0.858
  WS02006112           JUNCTION      0.00  2307.30     0  00:00           0        4.55      -0.028
  WS02006113           JUNCTION      0.00   590.37     0  01:46           0        4.47      -1.110
  WS02006115           JUNCTION      0.00   899.27     0  00:00           0        4.52      -0.720
  WS02006116           JUNCTION      0.00  1098.16     0  00:01           0        4.55      -0.517
  WS02006228           JUNCTION      0.00   573.46     0  01:46           0        4.45       0.133
  WS02006229           JUNCTION      0.00   576.33     0  01:46           0        4.44       0.169
  WS02006230           JUNCTION     10.28   586.28     0  01:46       0.296        4.42       0.033
  WS02006231           JUNCTION      0.00   579.75     0  01:46           0        4.12      -0.042
  WS02006232           JUNCTION      0.00   576.87     0  01:46           0        4.12       0.165
  WS02006234           JUNCTION      0.00   557.63     0  01:46           0        4.11      -0.094
  WS02006235           JUNCTION      0.00   542.22     0  01:44           0        4.16       0.095
  WS02006238           JUNCTION      0.00   417.62     0  03:17           0         2.9      -0.074
  WS02006239           JUNCTION      0.00   417.49     0  03:17           0        2.88      -0.082
  WS02006240           JUNCTION      0.00   415.82     0  03:17           0        2.86      -0.014
  WS02006242           JUNCTION      0.00   415.92     0  03:17           0        2.85       0.042
  WS02006243           JUNCTION      0.00   415.24     0  03:17           0        2.83      -0.043
  WS02006245           JUNCTION      0.00   414.46     0  03:17           0        2.83       0.132
  WS02006247           JUNCTION      0.00   414.01     0  03:17           0        2.83       0.016
  WS02006248           JUNCTION      0.00   413.80     0  03:18           0        2.82       0.024
  WS02006249           JUNCTION      0.00   419.25     0  01:39           0        3.22       0.051
  WS02006251           JUNCTION      0.08   405.15     0  01:43     0.00222        3.23      -0.026
  WS02006252           JUNCTION      0.00   400.00     0  01:38           0        3.22      -0.006
  WS02006256           JUNCTION      0.00   300.00     0  01:40           0        1.92      -0.044
  WSF200               JUNCTION      0.00   536.86     0  02:28           0        4.47       0.008
  YS02001580           JUNCTION      0.00   179.90     0  01:34           0     0.00484       3.287
  YS02001583           JUNCTION      0.00   268.58     0  01:34           0       0.015     -11.254
  YS02001586           JUNCTION    742.66   742.67     0  01:42        1.78        1.79       0.093
  YS02001590           JUNCTION      0.00   318.68     0  01:58           0        1.36      -0.044
  YS02001593           JUNCTION      0.00   318.61     0  01:57           0        1.36      -0.004
  YS02001596           JUNCTION      0.00   318.12     0  01:46           0        1.36      -0.001
  YS02001600           JUNCTION      0.00   319.58     0  01:46           0        1.36       0.007
  YS02001601           JUNCTION   1313.17  1630.67     0  01:40        2.33        3.69      -0.008
  YS02001602           JUNCTION      0.00   579.04     0  01:34           0        2.27       0.014
  YS02001605           JUNCTION      0.00   579.04     0  01:34           0        2.14       0.017
  YS02001607           JUNCTION      0.00   579.00     0  01:34           0        2.14       0.077
  YS02001610           JUNCTION      0.00   702.14     0  01:41           0        2.37       0.061
  YS02001613           JUNCTION      0.00   547.52     0  01:34           0        1.88       0.084
  YS02001616           JUNCTION      0.00   537.92     0  01:34           0        1.88       0.007
  YS02001619           JUNCTION   1287.93  1287.93     0  01:41        2.76        4.41      -0.004
  YS02001622           JUNCTION      0.00   959.87     0  01:37           0        4.17      -0.003
  YS02001625           JUNCTION      0.00  1308.13     0  01:42           0        4.35       0.189
  YS02001629           JUNCTION      0.00   936.82     0  01:34           0         3.4       0.008
  YS02001633           JUNCTION   1011.29  1422.59     0  01:35        1.77        4.92       0.069
  YS02001641           JUNCTION      0.00  1422.73     0  01:35           0        4.68       0.063
  YS02001644           JUNCTION    866.71  1950.27     0  01:35        1.46        6.13       0.039
  YS02001647           JUNCTION      0.00  1949.76     0  01:35           0        5.78       0.006
  YS02001649           JUNCTION      0.00  2229.38     0  01:36           0        7.19       0.006
  YS02001652           JUNCTION      0.00  1063.21     0  01:38           0        1.41      -0.116
  YS02001655           JUNCTION      0.15  1062.91     0  01:38     0.00443        1.41      -0.110
  YS02001658           JUNCTION      0.00  1062.61     0  01:38           0        1.41      -0.070
  YS02001661           JUNCTION      0.00  1064.80     0  01:38           0        1.41       0.032
  YS02001664           JUNCTION    871.53   871.53     0  01:39        1.41        1.41      -0.013
  YS02001745           JUNCTION    541.27   782.74     0  01:37       0.795       0.797       0.265
  YS02001748           JUNCTION      0.04   952.43     0  01:36      0.0013       0.802      -0.491
  YS02001751           JUNCTION      0.01   641.08     0  01:37    0.000317       0.812       0.048
  YS02001754           JUNCTION      0.26   640.81     0  01:37     0.00749       0.825      -0.208
  YS02001757           JUNCTION      0.00  3556.10     0  01:37           0        10.7       0.047
  YS02001759           JUNCTION    784.63  1513.30     0  01:37        1.17        2.71      -0.008
  YS02001762           JUNCTION      0.00   767.33     0  01:37           0        1.55       0.027
  YS02001765           JUNCTION      0.00   768.35     0  01:37           0        1.55       0.031
  YS02001767           JUNCTION      0.54   769.22     0  01:37      0.0154        1.54       0.015
  YS02001770           JUNCTION   1075.92  1075.92     0  01:39         1.7        1.75       0.006
  YS02001774           JUNCTION      0.00   662.83     0  01:36           0       0.239       0.607
  YS02001779           JUNCTION      0.01   666.02     0  01:36    0.000144       0.193      -0.419
  YS02001783           JUNCTION      0.00  1158.78     0  02:23           0        3.53       0.004
  YS02001784           JUNCTION      1.06  1159.92     0  02:23      0.0305        3.56       0.012
  YS02001786           JUNCTION      0.06  1159.76     0  02:23     0.00162        3.56       0.013
  YS02001788           JUNCTION      0.07  1159.77     0  02:24     0.00204        3.56       0.010
  YS02001790           JUNCTION      0.15  1175.00     0  02:24     0.00446        3.56       0.033
  YS02001791           JUNCTION      0.00  1286.83     0  02:25           0        3.56      -0.028
  YS02001793           JUNCTION      0.00  1243.53     0  02:26           0        3.56       0.013
  YS02001882           JUNCTION      0.00    29.58     0  02:17           0      0.0125       4.346
  YS02001884           JUNCTION      0.00    48.51     0  02:16           0      0.0485       4.805
  YS02001887           JUNCTION    665.71   665.73     0  02:25       0.966           1       0.427
  YS02001890           JUNCTION      0.00   666.03     0  02:25           0       0.959       0.507
  YS02001895           JUNCTION      0.00   516.20     0  02:27           0       0.926       0.153
  YS02001898           JUNCTION      0.00   516.13     0  02:27           0       0.924       0.021
  YS02001901           JUNCTION      0.00   516.05     0  02:27           0       0.927       0.328
  YS02001904           JUNCTION      0.00   516.07     0  02:27           0       0.931       0.281
  YS02001907           JUNCTION      0.00  1666.49     0  02:25           0        2.86       0.611
  YS02001910           JUNCTION      0.00  1151.92     0  02:25           0        1.94       0.355
  YS02001915           JUNCTION    726.57  1151.22     0  02:25        1.19        1.97       0.075
  YS02001918           JUNCTION      0.00   454.50     0  02:21           0       0.797      -0.003
  YS02001920           JUNCTION      2.87   453.85     0  02:21      0.0827       0.785       0.101
  YS02001923           JUNCTION      0.04   429.02     0  02:21     0.00109        0.69      -0.011
  YS02001926           JUNCTION      0.05   425.27     0  02:21      0.0015       0.675       0.060
  YS02001929           JUNCTION    377.27   377.27     0  02:25       0.668       0.668      -0.088
  YS02006553           JUNCTION      0.00   803.43     0  02:34           0        2.23       0.504
  YS02006556           JUNCTION      0.00   804.13     0  02:34           0        2.24       0.348
  YS02006558           JUNCTION    871.74  1159.76     0  02:23        1.34        3.56       0.096
  YS02006561           JUNCTION      0.00  1158.97     0  02:23           0        3.53      -0.004
  YS02163301           JUNCTION      0.00   855.57     0  01:35           0        3.39       0.043
  YS02163601           JUNCTION      0.11  1422.68     0  01:35     0.00317        4.68       0.104
  YS02164001           JUNCTION      0.00  1422.70     0  01:35           0        4.68       0.051
  CC-1                 OUTFALL       0.00   683.00     0  01:41           0        4.06       0.000
  CC-2                 OUTFALL       0.00   683.00     0  01:46           0        3.87       0.000
  JK-1                 OUTFALL       0.00  1000.00     0  02:08           0        1.71       0.000
  JK-2                 OUTFALL       0.00     0.00     0  00:00           0           0       0.000 ltr
  WSC                  OUTFALL       0.00   555.38     0  02:47           0        4.99       0.000
  CC-storage           STORAGE       0.00  3556.22     0  01:37           0        12.9      -0.168
  JK-storage           STORAGE       0.00  1287.51     0  02:23           0        3.71      -0.289
  
  
  **********************
  Node Surcharge Summary
  **********************
  
  Surcharging occurs when water rises above the top of the highest conduit.
  ---------------------------------------------------------------------
                                               Max. Height   Min. Depth
                                   Hours       Above Crown    Below Rim
  Node                 Type      Surcharged         Meters       Meters
  ---------------------------------------------------------------------
  WS02006109           JUNCTION        1.66          0.296        1.524
  WS02006110           JUNCTION        1.55          0.116        1.734
  WS02006111           JUNCTION        0.01          0.087        1.783
  WS02006112           JUNCTION        1.52          1.680        0.000
  WS02006113           JUNCTION        0.01          0.600        1.330
  WS02006115           JUNCTION        0.01          0.642        1.608
  WS02006116           JUNCTION        0.01          0.000        2.290
  WS02006228           JUNCTION        1.65          0.353        1.847
  WS02006229           JUNCTION        1.66          0.390        2.060
  WS02006230           JUNCTION        1.54          0.249        1.321
  WS02006231           JUNCTION        1.56          0.363        1.167
  WS02006232           JUNCTION        1.68          0.666        0.814
  WS02006234           JUNCTION        1.63          0.868        0.372
  WS02006235           JUNCTION        1.66          1.132        0.158
  WS02006238           JUNCTION        1.67          1.205        0.225
  WS02006239           JUNCTION        1.66          1.225        0.065
  WS02006240           JUNCTION        1.65          1.151        0.239
  WS02006242           JUNCTION        1.67          0.820        0.000
  WS02006243           JUNCTION        1.65          0.715        0.055
  WS02006245           JUNCTION        1.64          0.571        0.279
  WS02006247           JUNCTION        1.64          0.510        0.250
  WS02006248           JUNCTION        1.64          0.380        0.000
  WS02006249           JUNCTION        1.63          0.390        0.000
  WS02006251           JUNCTION        1.57          0.204        0.976
  WS02006252           JUNCTION        1.71          1.100        0.000
  WS02006256           JUNCTION        3.75          2.050        0.000
  YS02001580           JUNCTION        0.65          0.450        0.000
  YS02001583           JUNCTION        0.66          0.500        0.000
  YS02001586           JUNCTION        0.80          0.510        0.000
  YS02001590           JUNCTION        0.87          0.750        0.000
  YS02001593           JUNCTION        0.88          0.840        0.000
  YS02001596           JUNCTION        0.98          1.070        0.000
  YS02001600           JUNCTION        1.13          1.190        0.000
  YS02001601           JUNCTION        1.57          1.440        0.000
  YS02001602           JUNCTION        1.40          1.270        0.000
  YS02001605           JUNCTION        1.33          1.180        0.000
  YS02001607           JUNCTION        0.86          0.680        0.000
  YS02001610           JUNCTION        0.89          0.680        0.000
  YS02001613           JUNCTION        0.85          0.700        0.000
  YS02001616           JUNCTION        0.81          0.610        0.000
  YS02001619           JUNCTION        0.79          0.610        0.000
  YS02001622           JUNCTION        0.79          0.620        0.000
  YS02001625           JUNCTION        0.98          0.780        0.000
  YS02001629           JUNCTION        0.75          0.470        0.000
  YS02001633           JUNCTION        1.01          1.060        0.000
  YS02001641           JUNCTION        0.96          1.100        0.000
  YS02001644           JUNCTION        0.94          0.920        0.000
  YS02001647           JUNCTION        0.74          0.831        0.069
  YS02001649           JUNCTION        0.88          1.050        0.000
  YS02001652           JUNCTION        0.66          1.130        0.000
  YS02001655           JUNCTION        0.46          1.200        0.000
  YS02001658           JUNCTION        0.22          1.300        0.000
  YS02001661           JUNCTION        0.02          1.390        0.000
  YS02001664           JUNCTION        0.01          0.204        1.106
  YS02001745           JUNCTION        0.01          1.350        0.000
  YS02001748           JUNCTION        0.15          1.190        0.000
  YS02001751           JUNCTION        0.30          1.200        0.000
  YS02001754           JUNCTION        0.55          1.150        0.000
  YS02001757           JUNCTION        0.96          1.210        0.000
  YS02001759           JUNCTION        0.85          1.208        0.002
  YS02001762           JUNCTION        0.81          1.150        0.000
  YS02001765           JUNCTION        0.76          1.100        0.000
  YS02001767           JUNCTION        0.73          1.030        0.000
  YS02001770           JUNCTION        0.69          0.920        0.000
  YS02001774           JUNCTION        0.79          1.050        0.000
  YS02001779           JUNCTION        0.54          0.680        0.000
  YS02001783           JUNCTION        0.41          0.457        1.143
  YS02001784           JUNCTION        0.39          0.338        1.152
  YS02001786           JUNCTION        0.28          0.088        1.342
  YS02001882           JUNCTION        0.36          0.645        0.185
  YS02001884           JUNCTION        0.37          0.674        0.196
  YS02001887           JUNCTION        0.40          0.770        0.180
  YS02001890           JUNCTION        0.42          0.760        0.000
  YS02001895           JUNCTION        0.35          0.567        0.183
  YS02001898           JUNCTION        0.34          0.538        0.202
  YS02001901           JUNCTION        0.39          0.678        0.192
  YS02001904           JUNCTION        0.38          0.647        0.203
  YS02001907           JUNCTION        0.65          0.950        0.000
  YS02001910           JUNCTION        0.44          0.981        0.119
  YS02001915           JUNCTION        0.35          0.934        0.066
  YS02001918           JUNCTION        0.27          0.810        0.000
  YS02001920           JUNCTION        0.29          1.053        0.087
  YS02001923           JUNCTION        0.02          0.721        0.099
  YS02001926           JUNCTION        0.03          0.826        0.074
  YS02001929           JUNCTION        0.01          0.780        0.000
  YS02006553           JUNCTION        0.67          0.973        0.217
  YS02006556           JUNCTION        0.54          0.907        0.443
  YS02006558           JUNCTION        0.52          0.896        0.504
  YS02006561           JUNCTION        0.24          0.132        1.018
  YS02163301           JUNCTION        0.99          0.953        0.077
  YS02163601           JUNCTION        1.03          1.078        0.002
  YS02164001           JUNCTION        0.97          1.100        0.000
  
  
  *********************
  Node Flooding Summary
  *********************
  
  Flooding refers to all water that overflows a node, whether it ponds or not.
  --------------------------------------------------------------------------
                                                             Total   Maximum
                                 Maximum   Time of Max       Flood    Ponded
                        Hours       Rate    Occurrence      Volume     Depth
  Node                 Flooded       LPS   days hr:min    10^6 ltr    Meters
  --------------------------------------------------------------------------
  WS02006112              0.01   1547.89      0  00:00       0.047     0.000
  WS02006242              0.01      3.57      0  01:46       0.000     0.000
  WS02006248              0.01     22.00      0  01:46       0.000     0.000
  WS02006249              1.57    120.31      0  01:46       0.400     0.000
  WS02006252              0.01      0.91      0  01:38       0.000     0.000
  WS02006256              1.78    248.91      0  01:40       0.629     0.000
  YS02001580              0.01    127.50      0  01:34       0.001     0.000
  YS02001583              0.01    238.19      0  01:34       0.000     0.000
  YS02001586              0.53    425.15      0  01:42       0.417     0.000
  YS02001590              0.01    120.76      0  01:32       0.000     0.000
  YS02001593              0.01      0.30      0  01:46       0.000     0.000
  YS02001596              0.01      0.16      0  01:46       0.000     0.000
  YS02001600              0.01      5.34      0  01:33       0.000     0.000
  YS02001601              0.72   1232.75      0  01:40       1.418     0.000
  YS02001602              0.62     62.06      0  01:44       0.126     0.000
  YS02001605              0.01      6.68      0  01:34       0.000     0.000
  YS02001607              0.01     76.18      0  01:34       0.000     0.000
  YS02001610              0.55    702.11      0  01:41       0.721     0.000
  YS02001613              0.01      1.62      0  02:16       0.000     0.000
  YS02001616              0.01    210.74      0  01:34       0.001     0.000
  YS02001619              0.01    270.48      0  01:34       0.001     0.000
  YS02001622              0.01    277.87      0  01:34       0.001     0.000
  YS02001625              0.52   1307.87      0  01:42       1.181     0.000
  YS02001629              0.12    383.67      0  01:34       0.075     0.000
  YS02001633              0.01      0.13      0  01:36       0.000     0.000
  YS02001641              0.01      0.28      0  01:46       0.000     0.000
  YS02001644              0.18    975.66      0  01:38       0.338     0.000
  YS02001649              0.01    194.04      0  01:37       0.001     0.000
  YS02001652              0.01     63.20      0  01:36       0.000     0.000
  YS02001655              0.01    487.05      0  01:36       0.001     0.000
  YS02001658              0.01    475.76      0  01:37       0.001     0.000
  YS02001661              0.01    278.65      0  01:37       0.000     0.000
  YS02001745              0.01    406.71      0  01:37       0.000     0.000
  YS02001748              0.01    519.46      0  01:37       0.002     0.000
  YS02001751              0.01    441.76      0  01:36       0.001     0.000
  YS02001754              0.01    317.59      0  01:36       0.000     0.000
  YS02001757              0.01     31.11      0  01:36       0.000     0.000
  YS02001762              0.01     11.19      0  01:36       0.000     0.000
  YS02001765              0.01      9.74      0  01:36       0.000     0.000
  YS02001767              0.01    212.41      0  01:36       0.000     0.000
  YS02001770              0.01    450.38      0  01:36       0.002     0.000
  YS02001774              0.01     62.80      0  01:36       0.000     0.000
  YS02001779              0.17    640.17      0  01:36       0.174     0.000
  YS02001890              0.12    152.03      0  02:25       0.029     0.000
  YS02001907              0.23   1381.13      0  02:25       0.623     0.000
  YS02001918              0.01     75.33      0  02:20       0.000     0.000
  YS02001929              0.01    193.60      0  02:20       0.000     0.000
  YS02164001              0.01      0.77      0  01:46       0.000     0.000
  
  
  **********************
  Storage Volume Summary
  **********************
  
  --------------------------------------------------------------------------------------------------
                         Average     Avg  Evap Exfil       Maximum     Max    Time of Max    Maximum
                          Volume    Pcnt  Pcnt  Pcnt        Volume    Pcnt     Occurrence    Outflow
  Storage Unit           1000 m3    Full  Loss  Loss       1000 m3    Full    days hr:min        LPS
  --------------------------------------------------------------------------------------------------
  CC-storage               2.365      37     0     0         4.672      73       0  02:12    1766.00
  JK-storage               0.140      48     0     0         0.212      73       0  02:40    1300.00
  
  
  ***********************
  Outfall Loading Summary
  ***********************
  
  -----------------------------------------------------------
                         Flow       Avg       Max       Total
                         Freq      Flow      Flow      Volume
  Outfall Node           Pcnt       LPS       LPS    10^6 ltr
  -----------------------------------------------------------
  CC-1                  23.99    683.00    683.00       4.057
  CC-2                  23.19    683.00    683.00       3.868
  JK-1                   8.77   1000.00   1000.00       1.710
  JK-2                   0.00      0.00      0.00       0.000
  WSC                   99.99    219.99    555.38       4.988
  -----------------------------------------------------------
  System                31.19   2585.99    555.38      14.622
  
  
  ********************
  Link Flow Summary
  ********************
  
  -----------------------------------------------------------------------------
                                 Maximum  Time of Max   Maximum    Max/    Max/
                                  |Flow|   Occurrence   |Veloc|    Full    Full
  Link                 Type          LPS  days hr:min     m/sec    Flow   Depth
  -----------------------------------------------------------------------------
  1                    CONDUIT    555.38     0  02:47      2.83    0.19    0.30
  WS02003060WS02003069 CONDUIT    553.44     0  02:45      1.64    0.22    0.34
  WS02003066WSF200     CONDUIT    536.86     0  02:28      2.85    0.09    0.22
  WS02003067WS02003066 CONDUIT    536.84     0  02:28      1.21    0.17    0.42
  WS02003069WS02003072 CONDUIT    553.68     0  02:46      1.37    0.27    0.39
  WS02003072WS02003073 CONDUIT    553.62     0  02:46      1.44    1.20    0.37
  WS02004401WS02004402 CONDUIT   1171.33     0  00:01      2.51    1.41    0.86
  WS02004402WS02004403 CONDUIT    884.75     0  00:01      2.16    1.27    0.88
  WS02004403WS02004404 CONDUIT    832.43     0  00:01      1.96    0.60    0.93
  WS02004404WS02004405 CONDUIT    776.45     0  00:01      2.26    7.61    0.96
  WS02004405WS02004406 CONDUIT    711.76     0  00:02      2.15    1.40    0.96
  WS02004406WS02004407 CONDUIT    537.54     0  02:26      1.04    0.24    0.63
  WS02004407WS02004409 CONDUIT    537.36     0  02:26      1.95    0.19    0.48
  WS02004409WS02004410 CONDUIT    537.17     0  02:27      1.31    0.69    0.67
  WS02004410WS02004411 CONDUIT    537.04     0  02:27      1.19    0.73    0.69
  WS02004411WS02004412 CONDUIT    536.97     0  02:43      1.07    0.76    0.69
  WS02004412WS02004413 CONDUIT    536.91     0  02:28      1.10    0.36    0.78
  WS02004413WS02003067 CONDUIT    536.83     0  02:28      1.11    0.23    0.59
  WS02006109WS02006110 CONDUIT   1306.78     0  00:00      3.14    2.51    1.00
  WS02006110WS02006113 CONDUIT    590.37     0  01:46      1.39    0.54    1.00
  WS02006111WS02006112 CONDUIT   2307.30     0  00:00      9.18    1.10    0.91
  WS02006112WS02006115 CONDUIT    899.27     0  00:00      1.16    0.53    1.00
  WS02006113WS02006111 CONDUIT   1176.04     0  00:00      2.49    1.41    1.00
  WS02006115WS02006116 CONDUIT   1098.16     0  00:01      1.72    1.41    1.00
  WS02006116WS02004401 CONDUIT   1677.78     0  00:00      2.92    2.31    0.84
  WS02006228WS02006109 CONDUIT    576.00     0  01:46      1.40    2.52    1.00
  WS02006229WS02006228 CONDUIT    573.46     0  01:46      1.24    1.90    1.00
  WS02006230WS02006229 CONDUIT    576.33     0  01:46      1.50   12.83    1.00
  WS02006231WS02006230 CONDUIT    576.00     0  01:46      1.50    8.74    1.00
  WS02006232WS02006231 CONDUIT    579.75     0  01:46      1.51    1.21    1.00
  WS02006234WS02006232 CONDUIT    576.87     0  01:46      1.50    1.17    1.00
  WS02006235WS02006234 CONDUIT    557.63     0  01:46      1.45    5.88    1.00
  WS02006238WS02006235 CONDUIT    417.42     0  03:17      1.43    0.93    1.00
  WS02006239WS02006238 CONDUIT    417.62     0  03:17      1.09    1.34    1.00
  WS02006240WS02006239 CONDUIT    417.49     0  03:17      1.09    1.31    1.00
  WS02006242WS02006240 CONDUIT    415.82     0  03:17      1.08    1.65    1.00
  WS02006243WS02006242 CONDUIT    415.92     0  03:17      1.16    0.89    1.00
  WS02006245WS02006243 CONDUIT    415.24     0  03:17      1.28    1.23    1.00
  WS02006247WS02006245 CONDUIT    414.46     0  03:17      1.24    3.29    1.00
  WS02006248WS02006247 CONDUIT    414.01     0  03:17      1.28    0.90    1.00
  WS02006249WS02006248 CONDUIT    413.80     0  03:18      1.31    2.27    1.00
  WS02006251WS02006249 CONDUIT    419.25     0  01:39      1.69    1.21    1.00
  WS02006252WS02006251 CONDUIT    405.08     0  01:43      4.84    1.49    1.00
  WS02006256WS02006235 CONDUIT    288.86     0  05:43      4.22    3.06    1.00
  WSF200WS02003060     CONDUIT    536.96     0  02:44      2.06    0.12    0.28
  YS02001580YS02001583 CONDUIT    179.90     0  01:34      0.92    0.70    1.00
  YS02001583YS02001586 CONDUIT    213.05     0  01:34      0.95    0.32    1.00
  YS02001586YS02001590 CONDUIT    318.68     0  01:58      1.29    0.56    1.00
  YS02001590YS02001593 CONDUIT    318.61     0  01:57      1.13    2.00    1.00
  YS02001593YS02001596 CONDUIT    318.12     0  01:46      1.74    0.50    1.00
  YS02001596YS02001600 CONDUIT    319.58     0  01:46      1.21    0.62    1.00
  YS02001600YS02001601 CONDUIT    321.63     0  01:46      1.14    0.55    1.00
  YS02001601YS02001602 CONDUIT    579.04     0  01:34      2.05    2.09    1.00
  YS02001602YS02001605 CONDUIT    579.04     0  01:34      2.05   12.25    1.00
  YS02001605YS02001607 CONDUIT    579.00     0  01:34      2.05    3.18    1.00
  YS02001607YS02001610 CONDUIT    544.68     0  01:34      0.72    0.52    1.00
  YS02001610YS02001613 CONDUIT    547.52     0  01:34      0.70    0.63    1.00
  YS02001613YS02001616 CONDUIT    537.92     0  01:34      0.69    0.46    1.00
  YS02001616YS02001619 CONDUIT    506.27     0  01:34      0.68    0.88    1.00
  YS02001619YS02001622 CONDUIT    959.87     0  01:37      1.30    1.41    1.00
  YS02001622YS02001625 CONDUIT    959.86     0  01:37      1.22    0.51    1.00
  YS02001625YS02001629 CONDUIT    936.82     0  01:34      1.19    0.45    1.00
  YS02001629YS02163301 CONDUIT    855.57     0  01:35      1.09    1.05    1.00
  YS02001633YS02163601 CONDUIT   1422.57     0  01:35      1.81    1.49    1.00
  YS02001641YS02001644 CONDUIT   1422.80     0  01:35      1.81    4.60    1.00
  YS02001644YS02001647 CONDUIT   1949.76     0  01:35      2.48    1.15    1.00
  YS02001647YS02001649 CONDUIT   1960.80     0  01:35      2.50    1.04    1.00
  YS02001649YS02001757 CONDUIT   2228.29     0  01:36      2.84    1.35    1.00
  YS02001652YS02001649 CONDUIT   1062.94     0  01:38      1.35    0.53    1.00
  YS02001655YS02001652 CONDUIT   1063.21     0  01:38      1.55    0.52    1.00
  YS02001658YS02001655 CONDUIT   1062.76     0  01:38      2.06    0.45    1.00
  YS02001661YS02001658 CONDUIT   1062.61     0  01:38      2.49    0.42    1.00
  YS02001664YS02001661 CONDUIT   1064.80     0  01:38      2.55    0.33    1.00
  YS02001745YS02001748 CONDUIT    641.06     0  01:37      2.44    0.25    1.00
  YS02001748YS02001751 CONDUIT    641.07     0  01:37      1.89    0.32    1.00
  YS02001751YS02001754 CONDUIT    640.55     0  01:37      1.55    0.31    1.00
  YS02001754YS02001757 CONDUIT    640.26     0  01:37      0.82    0.26    1.00
  YS02001757CaochengTiaoxuchi CONDUIT   3556.22     0  01:37      4.57    1.54    1.00
  YS02001759YS02001757 CONDUIT   1515.34     0  01:37      1.93    1.08    1.00
  YS02001762YS02001759 CONDUIT    767.77     0  01:37      0.98    0.88    1.00
  YS02001765YS02001762 CONDUIT    767.33     0  01:37      0.98    0.72    1.00
  YS02001767YS02001765 CONDUIT    768.35     0  01:37      0.98    0.97    1.00
  YS02001770YS02001767 CONDUIT    768.68     0  01:37      0.98    3.04    1.00
  YS02001774YS02001770 CONDUIT    662.83     0  01:36      0.84    0.42    1.00
  YS02001779YS02001774 CONDUIT    666.02     0  01:36      0.85    0.34    1.00
  YS02001783YS02001784 CONDUIT   1158.86     0  02:23      2.31    1.60    1.00
  YS02001784YS02001785 CONDUIT   1159.70     0  02:23      2.31    2.70    1.00
  YS02001786YS02001788 CONDUIT   1159.70     0  02:24      2.47    2.23    0.89
  YS02001788YS02001790 CONDUIT   1174.84     0  02:24      2.71    0.87    0.84
  YS02001790YS02001791 CONDUIT   1286.83     0  02:25      3.43    1.40    0.71
  YS02001791YS02001793 CONDUIT   1243.53     0  02:26      6.77    0.53    0.42
  YS02001793JiankangQianchi CONDUIT   1287.51     0  02:23      2.57    0.10    0.62
  YS02001882YS02001884 CONDUIT     29.58     0  02:17      0.13    0.03    1.00
  YS02001884YS02001887 CONDUIT     48.51     0  02:16      0.09    0.06    1.00
  YS02001887YS02001890 CONDUIT    666.03     0  02:25      0.85    1.14    1.00
  YS02001890YS02001895 CONDUIT    516.20     0  02:27      0.66    0.24    1.00
  YS02001895YS02001898 CONDUIT    516.13     0  02:27      0.66    0.90    1.00
  YS02001898YS02001901 CONDUIT    516.05     0  02:27      0.66    0.33    1.00
  YS02001901YS02001904 CONDUIT    516.07     0  02:27      0.66    0.80    1.00
  YS02001904YS02001907 CONDUIT    516.12     0  02:27      0.66    0.18    1.00
  YS02001907YS02006553 CONDUIT    803.43     0  02:34      0.89    0.95    1.00
  YS02001910YS02001907 CONDUIT   1151.63     0  02:25      1.47    0.65    1.00
  YS02001915YS02001910 CONDUIT   1151.92     0  02:25      1.47    0.57    1.00
  YS02001918YS02001915 CONDUIT    456.28     0  02:21      0.58    0.25    1.00
  YS02001920YS02001918 CONDUIT    454.50     0  02:21      0.65    0.44    1.00
  YS02001923YS02001920 CONDUIT    450.98     0  02:21      0.71    0.20    1.00
  YS02001926YS02001923 CONDUIT    428.98     0  02:21      0.96    0.61    1.00
  YS02001929YS02001926 CONDUIT    425.22     0  02:21      1.10    0.20    1.00
  YS02006553YS02006556 CONDUIT    804.13     0  02:34      1.02    0.69    1.00
  YS02006556YS02006558 CONDUIT    804.54     0  02:34      1.02    0.64    1.00
  YS02006558YS02006561 CONDUIT   1158.97     0  02:23      4.10    2.56    1.00
  YS02006561YS02001783 CONDUIT   1158.78     0  02:23      2.31    0.60    1.00
  YS02163301YS02001633 CONDUIT    855.37     0  01:35      1.09    0.80    1.00
  YS02163601YS02164001 CONDUIT   1422.70     0  01:35      1.81    1.26    1.00
  YS02164001YS02001641 CONDUIT   1422.73     0  01:35      1.81    1.94    1.00
  CC-R1                PUMP       683.00     0  01:41              1.00
  CC-R2                PUMP       683.00     0  01:46              1.00
  CC-S1                PUMP       200.00     0  00:34              1.00
  CC-S2                PUMP       200.00     0  01:38              1.00
  JK-R1                PUMP      1000.00     0  02:08              1.00
  JK-R2                PUMP         0.00     0  00:00              0.00
  JK-S                 PUMP       300.00     0  01:40              1.00
  
  
  ***************************
  Flow Classification Summary
  ***************************
  
  -------------------------------------------------------------------------------------
                      Adjusted    ---------- Fraction of Time in Flow Class ---------- 
                       /Actual         Up    Down  Sub   Sup   Up    Down  Norm  Inlet 
  Conduit               Length    Dry  Dry   Dry   Crit  Crit  Crit  Crit  Ltd   Ctrl  
  -------------------------------------------------------------------------------------
  1                       1.00   0.00  0.00  0.00  0.00  1.00  0.00  0.00  0.52  0.00
  WS02003060WS02003069    1.00   0.00  0.00  0.00  0.95  0.05  0.00  0.00  0.72  0.00
  WS02003066WSF200        1.00   0.01  0.00  0.00  0.00  0.99  0.00  0.00  0.76  0.00
  WS02003067WS02003066    1.00   0.01  0.00  0.00  0.99  0.00  0.00  0.00  0.00  0.00
  WS02003069WS02003072    1.00   0.00  0.00  0.00  1.00  0.00  0.00  0.00  0.78  0.00
  WS02003072WS02003073    1.00   0.00  0.00  0.00  0.00  0.00  0.00  1.00  0.00  0.00
  WS02004401WS02004402    1.00   0.00  0.00  0.00  1.00  0.00  0.00  0.00  0.00  0.00
  WS02004402WS02004403    1.00   0.00  0.00  0.00  1.00  0.00  0.00  0.00  0.00  0.00
  WS02004403WS02004404    1.00   0.00  0.00  0.00  1.00  0.00  0.00  0.00  0.00  0.00
  WS02004404WS02004405    1.00   0.00  0.00  0.00  1.00  0.00  0.00  0.00  0.01  0.00
  WS02004405WS02004406    1.00   0.00  0.00  0.00  1.00  0.00  0.00  0.00  0.00  0.00
  WS02004406WS02004407    1.00   0.00  0.00  0.00  1.00  0.00  0.00  0.00  0.00  0.00
  WS02004407WS02004409    1.00   0.00  0.00  0.00  1.00  0.00  0.00  0.00  0.99  0.00
  WS02004409WS02004410    1.00   0.00  0.00  0.00  1.00  0.00  0.00  0.00  0.00  0.00
  WS02004410WS02004411    1.00   0.00  0.00  0.00  1.00  0.00  0.00  0.00  0.00  0.00
  WS02004411WS02004412    1.00   0.00  0.00  0.00  1.00  0.00  0.00  0.00  0.00  0.00
  WS02004412WS02004413    1.00   0.00  0.00  0.00  0.99  0.00  0.00  0.00  0.00  0.00
  WS02004413WS02003067    1.00   0.00  0.00  0.00  0.00  0.00  0.99  0.00  0.00  0.00
  WS02006109WS02006110    1.00   0.00  0.00  0.00  1.00  0.00  0.00  0.00  0.00  0.00
  WS02006110WS02006113    1.00   0.00  0.00  0.00  1.00  0.00  0.00  0.00  0.00  0.00
  WS02006111WS02006112    1.00   0.00  0.00  0.00  1.00  0.00  0.00  0.00  1.00  0.00
  WS02006112WS02006115    1.00   0.00  0.00  0.00  1.00  0.00  0.00  0.00  0.00  0.00
  WS02006113WS02006111    1.00   0.00  0.00  0.00  0.00  1.00  0.00  0.00  0.11  0.00
  WS02006115WS02006116    1.00   0.00  0.00  0.00  1.00  0.00  0.00  0.00  0.00  0.00
  WS02006116WS02004401    1.00   0.00  0.00  0.00  1.00  0.00  0.00  0.00  0.00  0.00
  WS02006228WS02006109    1.00   0.00  0.00  0.00  1.00  0.00  0.00  0.00  0.00  0.00
  WS02006229WS02006228    1.00   0.00  0.00  0.00  1.00  0.00  0.00  0.00  0.00  0.00
  WS02006230WS02006229    1.00   0.00  0.00  0.00  1.00  0.00  0.00  0.00  0.01  0.00
  WS02006231WS02006230    1.00   0.00  0.00  0.00  0.25  0.00  0.75  0.00  0.00  0.00
  WS02006232WS02006231    1.00   0.00  0.00  0.00  0.98  0.00  0.02  0.00  0.00  0.00
  WS02006234WS02006232    1.00   0.00  0.00  0.00  1.00  0.00  0.00  0.00  0.41  0.00
  WS02006235WS02006234    1.00   0.06  0.00  0.00  0.77  0.00  0.17  0.00  0.00  0.00
  WS02006238WS02006235    1.00   0.01  0.00  0.00  0.99  0.01  0.00  0.00  0.00  0.00
  WS02006239WS02006238    1.00   0.05  0.00  0.00  0.94  0.00  0.00  0.01  0.45  0.00
  WS02006240WS02006239    1.00   0.05  0.00  0.00  0.74  0.00  0.00  0.21  0.01  0.00
  WS02006242WS02006240    1.00   0.02  0.03  0.00  0.94  0.00  0.02  0.00  0.00  0.00
  WS02006243WS02006242    1.00   0.02  0.00  0.00  0.94  0.00  0.00  0.04  0.54  0.00
  WS02006245WS02006243    1.00   0.01  0.00  0.00  0.77  0.00  0.00  0.22  0.00  0.00
  WS02006247WS02006245    1.00   0.01  0.00  0.00  0.95  0.00  0.00  0.04  0.00  0.00
  WS02006248WS02006247    1.00   0.01  0.00  0.00  0.96  0.00  0.00  0.03  0.12  0.00
  WS02006249WS02006248    1.00   0.00  0.01  0.00  0.71  0.00  0.28  0.00  0.00  0.00
  WS02006251WS02006249    1.00   0.00  0.00  0.00  0.99  0.00  0.00  0.00  0.62  0.00
  WS02006252WS02006251    1.00   0.03  0.07  0.00  0.23  0.00  0.67  0.00  0.00  0.00
  WS02006256WS02006235    1.00   0.01  0.00  0.00  0.99  0.01  0.00  0.00  0.00  0.00
  WSF200WS02003060        1.00   0.00  0.01  0.00  0.33  0.66  0.00  0.00  0.63  0.00
  YS02001580YS02001583    1.00   0.44  0.30  0.00  0.26  0.00  0.00  0.00  0.70  0.00
  YS02001583YS02001586    1.00   0.39  0.29  0.00  0.31  0.00  0.00  0.00  0.70  0.00
  YS02001586YS02001590    1.00   0.21  0.00  0.00  0.50  0.04  0.00  0.25  0.31  0.00
  YS02001590YS02001593    1.00   0.21  0.02  0.00  0.18  0.00  0.59  0.00  0.00  0.00
  YS02001593YS02001596    1.00   0.23  0.00  0.00  0.21  0.02  0.00  0.54  0.02  0.00
  YS02001596YS02001600    1.00   0.24  0.00  0.00  0.32  0.02  0.00  0.43  0.05  0.00
  YS02001600YS02001601    1.00   0.22  0.02  0.00  0.76  0.00  0.00  0.00  0.61  0.00
  YS02001601YS02001602    1.00   0.21  0.03  0.00  0.77  0.00  0.00  0.00  0.00  0.00
  YS02001602YS02001605    1.00   0.23  0.00  0.00  0.76  0.00  0.00  0.00  0.00  0.00
  YS02001605YS02001607    1.00   0.24  0.00  0.00  0.76  0.00  0.00  0.00  0.00  0.00
  YS02001607YS02001610    1.00   0.23  0.02  0.00  0.75  0.00  0.00  0.00  0.01  0.00
  YS02001610YS02001613    1.00   0.22  0.00  0.00  0.78  0.00  0.00  0.00  0.00  0.00
  YS02001613YS02001616    1.00   0.21  0.00  0.00  0.79  0.00  0.00  0.00  0.00  0.00
  YS02001616YS02001619    1.00   0.21  0.00  0.00  0.79  0.00  0.00  0.00  0.00  0.00
  YS02001619YS02001622    1.00   0.21  0.00  0.00  0.79  0.00  0.00  0.00  0.34  0.00
  YS02001622YS02001625    1.00   0.21  0.00  0.00  0.79  0.00  0.00  0.00  0.03  0.00
  YS02001625YS02001629    1.00   0.22  0.13  0.00  0.24  0.00  0.40  0.00  0.00  0.00
  YS02001629YS02163301    1.00   0.28  0.03  0.00  0.69  0.00  0.00  0.00  0.00  0.00
  YS02001633YS02163601    1.00   0.00  0.00  0.00  1.00  0.00  0.00  0.00  0.14  0.00
  YS02001641YS02001644    1.00   0.00  0.00  0.00  1.00  0.00  0.00  0.00  0.00  0.00
  YS02001644YS02001647    1.00   0.00  0.33  0.00  0.67  0.00  0.00  0.00  0.00  0.00
  YS02001647YS02001649    1.00   0.00  0.33  0.00  0.51  0.16  0.00  0.00  0.58  0.00
  YS02001649YS02001757    1.00   0.00  0.00  0.00  0.83  0.17  0.00  0.00  0.54  0.00
  YS02001652YS02001649    1.00   0.00  0.00  0.00  0.91  0.09  0.00  0.00  0.74  0.00
  YS02001655YS02001652    1.00   0.00  0.00  0.00  0.25  0.03  0.00  0.72  0.05  0.00
  YS02001658YS02001655    1.00   0.00  0.25  0.00  0.44  0.31  0.00  0.00  0.68  0.00
  YS02001661YS02001658    1.00   0.25  0.00  0.00  0.34  0.41  0.00  0.00  0.72  0.00
  YS02001664YS02001661    1.00   0.21  0.00  0.00  0.57  0.22  0.00  0.00  0.85  0.00
  YS02001745YS02001748    1.00   0.00  0.00  0.00  0.14  0.01  0.00  0.85  0.05  0.00
  YS02001748YS02001751    1.00   0.00  0.00  0.00  0.69  0.31  0.00  0.00  0.77  0.00
  YS02001751YS02001754    1.00   0.00  0.00  0.00  0.22  0.01  0.00  0.77  0.02  0.00
  YS02001754YS02001757    1.00   0.00  0.00  0.00  1.00  0.00  0.00  0.00  0.83  0.00
  YS02001757CaochengTiaoxuchi    1.00   0.00  0.00  0.00  0.96  0.04  0.00  0.00  0.75  0.00
  YS02001759YS02001757    1.00   0.00  0.00  0.00  0.95  0.05  0.00  0.00  0.69  0.00
  YS02001762YS02001759    1.00   0.00  0.00  0.00  1.00  0.00  0.00  0.00  0.03  0.00
  YS02001765YS02001762    1.00   0.00  0.00  0.00  1.00  0.00  0.00  0.00  0.73  0.00
  YS02001767YS02001765    1.00   0.00  0.00  0.00  1.00  0.00  0.00  0.00  0.00  0.00
  YS02001770YS02001767    1.00   0.00  0.00  0.00  1.00  0.00  0.00  0.00  0.00  0.00
  YS02001774YS02001770    1.00   0.00  0.23  0.00  0.66  0.00  0.11  0.00  0.02  0.00
  YS02001779YS02001774    1.00   0.00  0.00  0.00  1.00  0.00  0.00  0.00  0.78  0.00
  YS02001783YS02001784    1.00   0.00  0.38  0.00  0.62  0.00  0.00  0.00  0.57  0.00
  YS02001784YS02001785    1.00   0.00  0.00  0.00  1.00  0.00  0.00  0.00  0.17  0.00
  YS02001786YS02001788    1.00   0.00  0.00  0.00  0.74  0.26  0.00  0.00  0.00  0.00
  YS02001788YS02001790    1.00   0.00  0.00  0.00  0.44  0.56  0.00  0.00  0.80  0.00
  YS02001790YS02001791    1.00   0.00  0.00  0.00  0.01  0.99  0.00  0.00  0.17  0.00
  YS02001791YS02001793    1.00   0.00  0.00  0.00  0.00  1.00  0.00  0.00  0.01  0.00
  YS02001793JiankangQianchi    1.00   0.00  0.00  0.00  0.96  0.04  0.00  0.00  0.99  0.00
  YS02001882YS02001884    1.00   0.29  0.03  0.00  0.68  0.00  0.00  0.00  0.00  0.00
  YS02001884YS02001887    1.00   0.03  0.14  0.00  0.83  0.00  0.00  0.00  0.00  0.00
  YS02001887YS02001890    1.00   0.00  0.00  0.00  0.99  0.00  0.01  0.00  0.00  0.00
  YS02001890YS02001895    1.00   0.00  0.33  0.00  0.67  0.00  0.00  0.00  0.00  0.00
  YS02001895YS02001898    1.00   0.33  0.01  0.00  0.60  0.00  0.06  0.00  0.00  0.00
  YS02001898YS02001901    1.00   0.34  0.00  0.00  0.66  0.00  0.00  0.00  0.01  0.00
  YS02001901YS02001904    1.00   0.34  0.00  0.00  0.66  0.00  0.00  0.00  0.00  0.00
  YS02001904YS02001907    1.00   0.00  0.33  0.00  0.67  0.00  0.00  0.00  0.00  0.00
  YS02001907YS02006553    1.00   0.00  0.01  0.00  0.99  0.00  0.00  0.00  0.00  0.00
  YS02001910YS02001907    1.00   0.00  0.00  0.00  0.99  0.00  0.00  0.01  0.12  0.00
  YS02001915YS02001910    1.00   0.00  0.00  0.00  0.92  0.08  0.00  0.00  0.15  0.00
  YS02001918YS02001915    1.00   0.00  0.00  0.00  0.99  0.01  0.00  0.00  0.77  0.00
  YS02001920YS02001918    1.00   0.00  0.00  0.00  1.00  0.00  0.00  0.00  0.01  0.00
  YS02001923YS02001920    1.00   0.00  0.00  0.00  1.00  0.00  0.00  0.00  0.94  0.00
  YS02001926YS02001923    1.00   0.00  0.04  0.00  0.07  0.00  0.90  0.00  0.00  0.00
  YS02001929YS02001926    1.00   0.00  0.21  0.00  0.79  0.00  0.00  0.00  0.84  0.00
  YS02006553YS02006556    1.00   0.01  0.00  0.00  0.99  0.00  0.00  0.00  0.03  0.00
  YS02006556YS02006558    1.00   0.00  0.00  0.00  1.00  0.00  0.00  0.00  0.00  0.00
  YS02006558YS02006561    1.00   0.38  0.00  0.00  0.06  0.56  0.00  0.00  0.19  0.00
  YS02006561YS02001783    1.00   0.38  0.00  0.00  0.10  0.52  0.00  0.00  0.70  0.00
  YS02163301YS02001633    1.00   0.00  0.28  0.00  0.72  0.00  0.00  0.00  0.00  0.00
  YS02163601YS02164001    1.00   0.00  0.06  0.00  0.94  0.00  0.00  0.00  0.00  0.00
  YS02164001YS02001641    1.00   0.00  0.06  0.00  0.94  0.00  0.00  0.00  0.05  0.00
  
  
  *************************
  Conduit Surcharge Summary
  *************************
  
  ----------------------------------------------------------------------------
                                                           Hours        Hours 
                         --------- Hours Full --------   Above Full   Capacity
  Conduit                Both Ends  Upstream  Dnstream   Normal Flow   Limited
  ----------------------------------------------------------------------------
  WS02003072WS02003073        0.01      0.01      0.01      1.57         0.01
  WS02004401WS02004402        0.01      0.01      0.01      0.01         0.01
  WS02004402WS02004403        0.01      0.01      0.01      0.01         0.01
  WS02004404WS02004405        0.01      0.01      0.01      3.02         0.01
  WS02004405WS02004406        0.01      0.01      0.01      1.50         0.01
  WS02006109WS02006110        1.54      1.55      1.68      1.56         0.01
  WS02006110WS02006113        0.01      0.01      1.68      0.01         0.01
  WS02006111WS02006112        0.01      0.01      1.76      0.01         0.01
  WS02006112WS02006115        0.01      0.01      1.52      0.01         0.01
  WS02006113WS02006111        0.01      0.01      0.01      0.01         0.01
  WS02006115WS02006116        0.01      0.01      0.01      0.01         0.01
  WS02006116WS02004401        0.01      0.01      0.01      0.01         0.01
  WS02006228WS02006109        1.66      1.68      1.66      1.77         1.66
  WS02006229WS02006228        1.65      1.66      1.65      1.72         1.65
  WS02006230WS02006229        1.69      1.71      1.69      3.25         1.69
  WS02006231WS02006230        1.54      1.54      1.57      3.07         0.01
  WS02006232WS02006231        1.56      1.56      1.68      1.58         0.01
  WS02006234WS02006232        1.65      1.65      1.68      1.57         1.56
  WS02006235WS02006234        1.63      1.63      1.66      2.97         0.01
  WS02006238WS02006235        1.67      1.67      1.68      0.01         0.01
  WS02006239WS02006238        1.67      1.67      1.67      1.65         1.49
  WS02006240WS02006239        1.66      1.66      1.66      1.64         1.40
  WS02006242WS02006240        1.65      1.65      1.67      1.70         0.01
  WS02006243WS02006242        1.65      1.65      1.67      0.01         0.01
  WS02006245WS02006243        1.64      1.65      1.65      0.12         0.32
  WS02006247WS02006245        1.64      1.65      1.64      2.75         1.64
  WS02006248WS02006247        1.64      1.64      1.64      0.01         0.01
  WS02006249WS02006248        1.63      1.64      1.63      2.74         0.01
  WS02006251WS02006249        1.63      1.63      1.63      1.69         1.63
  WS02006252WS02006251        1.70      1.70      1.71      1.70         0.01
  WS02006256WS02006235        3.03      3.03      3.75      1.78         0.01
  YS02001580YS02001583        0.65      0.65      0.71      0.01         0.01
  YS02001583YS02001586        0.66      0.66      0.80      0.01         0.01
  YS02001586YS02001590        0.81      0.81      0.87      0.01         0.01
  YS02001590YS02001593        0.88      0.88      0.89      0.94         0.01
  YS02001593YS02001596        0.88      0.88      0.98      0.01         0.01
  YS02001596YS02001600        1.02      1.02      1.13      0.01         0.01
  YS02001600YS02001601        1.19      1.19      1.57      0.01         0.01
  YS02001601YS02001602        1.40      1.40      1.60      1.13         0.01
  YS02001602YS02001605        1.33      1.33      1.40      2.17         0.01
  YS02001605YS02001607        1.28      1.33      1.28      1.50         1.28
  YS02001607YS02001610        0.86      0.86      0.89      0.01         0.01
  YS02001610YS02001613        0.85      0.85      0.89      0.01         0.01
  YS02001613YS02001616        0.81      0.81      0.85      0.01         0.01
  YS02001616YS02001619        0.79      0.79      0.81      0.01         0.02
  YS02001619YS02001622        0.79      0.79      0.79      0.87         0.74
  YS02001622YS02001625        0.79      0.79      0.98      0.01         0.01
  YS02001625YS02001629        0.75      0.75      0.98      0.01         0.01
  YS02001629YS02163301        0.98      0.98      0.99      0.01         0.15
  YS02001633YS02163601        1.01      1.01      1.03      0.35         0.32
  YS02001641YS02001644        0.94      0.96      0.94      1.62         0.93
  YS02001644YS02001647        0.74      0.74      0.94      0.03         0.01
  YS02001647YS02001649        0.74      0.74      0.88      0.01         0.01
  YS02001649YS02001757        0.88      0.88      0.96      0.04         0.06
  YS02001652YS02001649        0.69      0.69      0.88      0.01         0.01
  YS02001655YS02001652        0.45      0.45      0.66      0.01         0.01
  YS02001658YS02001655        0.22      0.22      0.46      0.01         0.01
  YS02001661YS02001658        0.02      0.02      0.22      0.01         0.01
  YS02001664YS02001661        0.01      0.01      0.06      0.01         0.01
  YS02001745YS02001748        0.01      0.01      0.15      0.01         0.01
  YS02001748YS02001751        0.19      0.19      0.30      0.01         0.01
  YS02001751YS02001754        0.30      0.30      0.55      0.01         0.01
  YS02001754YS02001757        0.60      0.60      0.96      0.01         0.01
  YS02001757CaochengTiaoxuchi        0.91      0.96      1.42      0.36         0.30
  YS02001759YS02001757        0.85      0.85      0.96      0.01         0.02
  YS02001762YS02001759        0.81      0.81      0.85      0.01         0.02
  YS02001765YS02001762        0.76      0.76      0.81      0.01         0.01
  YS02001767YS02001765        0.73      0.73      0.76      0.01         0.03
  YS02001770YS02001767        0.72      0.72      0.73      0.53         0.48
  YS02001774YS02001770        0.69      0.69      0.79      0.01         0.01
  YS02001779YS02001774        0.53      0.53      0.79      0.01         0.01
  YS02001783YS02001784        0.39      0.41      0.39      0.57         0.39
  YS02001784YS02001785        0.28      0.39      0.28      0.81         0.28
  YS02001786YS02001788        0.01      0.28      0.01      0.69         0.01
  YS02001790YS02001791        0.01      0.01      0.01      0.38         0.01
  YS02001793JiankangQianchi        0.01      0.01      7.96      0.01         0.01
  YS02001882YS02001884        0.36      0.36      0.37      0.01         0.01
  YS02001884YS02001887        0.39      0.39      0.40      0.01         0.01
  YS02001887YS02001890        0.42      0.42      0.43      0.05         0.01
  YS02001890YS02001895        0.35      0.35      0.44      0.01         0.01
  YS02001895YS02001898        0.34      0.34      0.35      0.01         0.01
  YS02001898YS02001901        0.35      0.35      0.39      0.01         0.01
  YS02001901YS02001904        0.38      0.38      0.39      0.01         0.01
  YS02001904YS02001907        0.38      0.38      0.67      0.01         0.01
  YS02001907YS02006553        0.82      0.82      0.90      0.01         0.01
  YS02001910YS02001907        0.44      0.44      0.65      0.01         0.01
  YS02001915YS02001910        0.35      0.35      0.44      0.01         0.01
  YS02001918YS02001915        0.27      0.27      0.35      0.01         0.01
  YS02001920YS02001918        0.27      0.27      0.29      0.01         0.01
  YS02001923YS02001920        0.23      0.23      0.29      0.01         0.01
  YS02001926YS02001923        0.02      0.02      0.03      0.01         0.01
  YS02001929YS02001926        0.01      0.01      0.03      0.01         0.01
  YS02006553YS02006556        0.54      0.54      0.67      0.01         0.01
  YS02006556YS02006558        0.60      0.60      0.69      0.01         0.01
  YS02006558YS02006561        0.30      0.52      0.30      0.76         0.30
  YS02006561YS02001783        0.24      0.24      0.41      0.01         0.01
  YS02163301YS02001633        0.99      0.99      1.02      0.01         0.01
  YS02163601YS02164001        0.97      0.97      1.03      0.03         0.01
  YS02164001YS02001641        0.96      0.97      0.96      0.75         0.71
  
  
  ***************
  Pumping Summary
  ***************
  
  ---------------------------------------------------------------------------------------------------------
                                                  Min       Avg       Max     Total     Power    % Time Off
                        Percent   Number of      Flow      Flow      Flow    Volume     Usage    Pump Curve
  Pump                 Utilized   Start-Ups       LPS       LPS       LPS  10^6 ltr     Kw-hr    Low   High
  ---------------------------------------------------------------------------------------------------------
  CC-R1                   20.63           1      0.00    683.00    683.00     4.058     75.76    0.0   17.1
  CC-R2                   19.66           1      0.00    683.00    683.00     3.868     72.24    0.0   17.9
  CC-S1                   34.63           1      0.00    200.00    200.00     1.995     11.86    0.0    0.0
  CC-S2                   21.29           1      0.00    200.00    200.00     1.226      6.86    0.0    0.0
  JK-R1                    5.94           3      0.00   1000.00   1000.00     1.709     16.24    0.0    0.0
  JK-R2                    0.00           0      0.00      0.00      0.00     0.000      0.00    0.0    0.0
  JK-S                    22.26           2      0.00    300.00    300.00     1.924     30.18    0.0    0.0
  

  Analysis begun on:  Mon Aug  7 10:45:36 2023
  Analysis ended on:  Mon Aug  7 10:45:51 2023
  Total elapsed time: 00:00:15