
  OWA STORM WATER MANAGEMENT MODEL - VERSION v5.1.14 (OWA 2022-07-31)
  --------------------------------------------------------------

  WARNING 04: minimum elevation drop used for Conduit WS02004404WS02004405
  WARNING 03: negative offset ignored for Link YS02001904YS02001907
  
  *********************************************************
  NOTE: The summary statistics displayed in this report are
  based on results found at every computational time step,  
  not just on results from each reporting time step.
  *********************************************************
  
  ****************
  Analysis Options
  ****************
  Flow Units ............... LPS
  Process Models:
    Rainfall/Runoff ........ YES
    RDII ................... NO
    Snowmelt ............... NO
    Groundwater ............ NO
    Flow Routing ........... YES
    Ponding Allowed ........ NO
    Water Quality .......... NO
  Infiltration Method ...... HORTON
  Flow Routing Method ...... DYNWAVE
  Surcharge Method ......... EXTRAN
  Starting Date ............ 08/28/2015 08:00:00
  Ending Date .............. 08/28/2015 16:00:00
  Antecedent Dry Days ...... 8.0
  Report Time Step ......... 00:01:00
  Wet Time Step ............ 00:01:00
  Dry Time Step ............ 00:01:00
  Routing Time Step ........ 30.00 sec
  Variable Time Step ....... YES
  Maximum Trials ........... 8
  Number of Threads ........ 4
  Head Tolerance ........... 0.001500 m
  
  
  **************************        Volume         Depth
  Runoff Quantity Continuity     hectare-m            mm
  **************************     ---------       -------
  Initial LID Storage ......         0.072         1.184
  Total Precipitation ......         0.729        12.027
  Evaporation Loss .........         0.000         0.000
  Infiltration Loss ........         0.139         2.289
  Surface Runoff ...........         0.418         6.905
  Final Storage ............         0.243         4.018
  Continuity Error (%) .....        -0.006
  
  
  **************************        Volume        Volume
  Flow Routing Continuity        hectare-m      10^6 ltr
  **************************     ---------     ---------
  Dry Weather Inflow .......         0.630         6.296
  Wet Weather Inflow .......         0.418         4.182
  Groundwater Inflow .......         0.000         0.000
  RDII Inflow ..............         0.000         0.000
  External Inflow ..........         0.105         1.045
  External Outflow .........         0.940         9.399
  Flooding Loss ............         0.003         0.033
  Evaporation Loss .........         0.000         0.000
  Exfiltration Loss ........         0.000         0.000
  Initial Stored Volume ....         0.303         3.031
  Final Stored Volume ......         0.513         5.129
  Continuity Error (%) .....        -0.044
  
  
  *************************
  Highest Continuity Errors
  *************************
  Node YS02001774 (43.09%)
  Node YS02001884 (19.50%)
  Node HS02004842 (16.47%)
  Node YSB1171 (3.80%)
  Node YS02001907 (3.50%)
  
  
  ***************************
  Time-Step Critical Elements
  ***************************
  Link WS02006252WS02006251 (70.43%)
  Link WS02006280WS02006229 (24.26%)
  Link WS02006238WS02006235 (2.80%)
  Link WS02006228WS02006109 (1.82%)
  
  
  ********************************
  Highest Flow Instability Indexes
  ********************************
  Link WS02006113WS02006111 (36)
  Link WS02006111WS02006112 (8)
  Link WS02006256WS02006235 (5)
  Link WS02006229WS02006228 (4)
  Link WS02006230WS02006229 (4)
  
  
  *************************
  Routing Time Step Summary
  *************************
  Minimum Time Step           :     0.00 sec
  Average Time Step           :     2.33 sec
  Maximum Time Step           :     6.46 sec
  Percent in Steady State     :    -0.00
  Average Iterations per Step :     2.07
  Percent Not Converging      :     0.31
  
  
  ***************************
  Subcatchment Runoff Summary
  ***************************
  
  ------------------------------------------------------------------------------------------------------------------------------
                            Total      Total      Total      Total     Imperv       Perv      Total       Total     Peak  Runoff
                           Precip      Runon       Evap      Infil     Runoff     Runoff     Runoff      Runoff   Runoff   Coeff
  Subcatchment                 mm         mm         mm         mm         mm         mm         mm    10^6 ltr      LPS
  ------------------------------------------------------------------------------------------------------------------------------
  sub0                      12.03       0.00       0.00       0.84       9.92       0.00       9.92        0.01     2.03   0.825
  sub1                      12.03       0.00       0.00       1.19       8.48       0.00       8.48        0.06    12.31   0.705
  sub10                     12.03       0.00       0.00       0.78       7.95       0.00       7.95        0.09    19.87   0.661
  sub11                     12.03       0.00       0.00       0.73       7.40       0.00       7.40        0.09    20.61   0.615
  sub12                     12.03       0.00       0.00       1.27       7.53       0.00       7.53        0.07    16.53   0.626
  sub14                     12.03       0.00       0.00       0.78       7.01       0.00       7.01        0.07    15.78   0.582
  sub15                     12.03       0.00       0.00       3.05       6.29       0.00       6.29        0.11    24.71   0.523
  sub16                     12.03       0.00       0.00       3.42       6.15       0.00       6.15        0.06    15.87   0.511
  sub17                     12.03       0.00       0.00       3.60       6.78       0.00       6.78        0.06    14.06   0.564
  sub2                      12.03       0.00       0.00       4.12       6.18       0.00       6.18        0.06    11.72   0.514
  sub22                     12.03       0.00       0.00       5.01       5.88       0.00       5.88        0.37    86.37   0.489
  sub23                     12.03       0.00       0.00       4.01       6.05       0.00       6.05        0.29    68.50   0.503
  sub3                      12.03       0.00       0.00       4.08       6.10       0.00       6.10        0.14    26.01   0.507
  sub4                      12.03       0.00       0.00       1.17       8.26       0.00       8.26        0.17    30.67   0.687
  sub5                      12.03       0.00       0.00       0.70       8.20       0.00       8.20        0.09    20.61   0.682
  sub60                     12.03       0.00       0.00       1.11       7.24       0.00       7.24        0.10    22.97   0.602
  sub61                     12.03       0.00       0.00       1.67       7.23       0.00       7.23        0.13    32.18   0.601
  sub62                     12.03       0.00       0.00       0.76       7.70       0.00       7.70        0.21    47.47   0.640
  sub63                     12.03       0.00       0.00       2.85       6.19       0.00       6.19        0.14    33.81   0.515
  sub64                     12.03       0.00       0.00       1.41       7.03       0.00       7.03        0.17    36.64   0.585
  sub65                     12.03       0.00       0.00       1.28       7.58       0.00       7.58        0.21    43.15   0.630
  sub66                     12.03       0.00       0.00       2.77       5.95       0.00       5.95        0.28    53.23   0.494
  sub67                     12.03       0.00       0.00       0.78       7.91       0.00       7.91        0.15    36.68   0.657
  sub68                     12.03       0.00       0.00       1.28       6.98       0.00       6.98        0.19    45.11   0.580
  sub69                     12.03       0.00       0.00       1.22       8.03       0.21       8.24        0.31    62.64   0.685
  sub7                      12.03       0.00       0.00       0.84       7.51       0.00       7.51        0.03     6.16   0.625
  sub70                     12.03       0.00       0.00       3.13       6.40       0.22       6.61        0.19    34.37   0.550
  sub71                     12.03       0.00       0.00       0.69       6.98       0.00       6.98        0.18    38.87   0.581
  sub72                     12.03       0.00       0.00       0.64       7.52       0.00       7.52        0.10    20.06   0.625
  sub8                      12.03       0.00       0.00       0.81       7.30       0.00       7.30        0.05    11.09   0.607
  sub9                      12.03       0.00       0.00       0.79       7.07       0.00       7.07        0.03     8.08   0.588
  

  ***********************
  LID Performance Summary
  ***********************

  --------------------------------------------------------------------------------------------------------------------
                                         Total      Evap     Infil   Surface    Drain    Initial     Final  Continuity
                                        Inflow      Loss      Loss   Outflow   Outflow   Storage   Storage       Error
  Subcatchment      LID Control             mm        mm        mm        mm        mm        mm        mm           %
  --------------------------------------------------------------------------------------------------------------------
  sub1              GreenRoof            12.03      0.00      0.00      0.00      0.00      7.05     19.08        0.00
  sub10             GreenRoof            12.03      0.00      0.00      0.00      0.00      7.05     19.08        0.00
  sub11             GreenRoof            12.03      0.00      0.00      0.00      0.00      7.05     19.08        0.00
  sub12             GreenRoof            12.03      0.00      0.00      0.00      0.00      7.05     19.08        0.00
  sub14             GreenRoof            12.03      0.00      0.00      0.00      0.00      7.05     19.08        0.00
  sub15             GreenRoof            12.03      0.00      0.00      0.00      0.00      7.05     19.08        0.00
  sub16             GreenRoof            12.03      0.00      0.00      0.00      0.00      7.05     19.08        0.00
  sub17             GreenRoof            12.03      0.00      0.00      0.00      0.00      7.05     19.08        0.00
  sub2              GreenRoof            12.03      0.00      0.00      0.00      0.00      7.05     19.08        0.00
  sub22             GreenRoof            12.03      0.00      0.00      0.00      0.00      7.05     19.08        0.00
  sub23             GreenRoof            12.03      0.00      0.00      0.00      0.00      7.05     19.08        0.00
  sub3              GreenRoof            12.03      0.00      0.00      0.00      0.00      7.05     19.08        0.00
  sub4              GreenRoof            12.03      0.00      0.00      0.00      0.00      7.05     19.08        0.00
  sub5              GreenRoof            12.03      0.00      0.00      0.00      0.00      7.05     19.08        0.00
  sub60             GreenRoof            12.03      0.00      0.00      0.00      0.00      7.05     19.08        0.00
  sub61             GreenRoof            12.03      0.00      0.00      0.00      0.00      7.05     19.08        0.00
  sub62             GreenRoof            12.03      0.00      0.00      0.00      0.00      7.05     19.08        0.00
  sub63             GreenRoof            12.03      0.00      0.00      0.00      0.00      7.05     19.08        0.00
  sub64             GreenRoof            12.03      0.00      0.00      0.00      0.00      7.05     19.08        0.00
  sub65             GreenRoof            12.03      0.00      0.00      0.00      0.00      7.05     19.08        0.00
  sub66             GreenRoof            12.03      0.00      0.00      0.00      0.00      7.05     19.08        0.00
  sub67             GreenRoof            12.03      0.00      0.00      0.00      0.00      7.05     19.08        0.00
  sub68             GreenRoof            12.03      0.00      0.00      0.00      0.00      7.05     19.08        0.00
  sub69             GreenRoof            12.03      0.00      0.00      0.00      0.00      7.05     19.08        0.00
  sub7              GreenRoof            12.03      0.00      0.00      0.00      0.00      7.05     19.08        0.00
  sub70             GreenRoof            12.03      0.00      0.00      0.00      0.00      7.05     19.08        0.00
  sub71             GreenRoof            12.03      0.00      0.00      0.00      0.00      7.05     19.08        0.00
  sub72             GreenRoof            12.03      0.00      0.00      0.00      0.00      7.05     19.08        0.00
  sub8              GreenRoof            12.03      0.00      0.00      0.00      0.00      7.05     19.08        0.00
  sub9              GreenRoof            12.03      0.00      0.00      0.00      0.00      7.05     19.08        0.00
  
  ******************
  Node Depth Summary
  ******************
  
  ---------------------------------------------------------------------------------
                                 Average  Maximum  Maximum  Time of Max    Reported
                                   Depth    Depth      HGL   Occurrence   Max Depth
  Node                 Type       Meters   Meters   Meters  days hr:min      Meters
  ---------------------------------------------------------------------------------
  HS02004478           JUNCTION     0.06     0.17     9.40     0  01:40        0.17
  HS02004479           JUNCTION     0.12     0.29     9.49     0  01:39        0.29
  HS02004480           JUNCTION     0.09     0.25     9.49     0  01:39        0.25
  HS02004770           JUNCTION     0.12     0.26    10.09     0  01:38        0.26
  HS02004777           JUNCTION     0.15     0.29    10.09     0  01:38        0.29
  HS02004785           JUNCTION     0.05     0.17    10.07     0  01:38        0.17
  HS02004788           JUNCTION     0.03     0.10     9.99     0  01:39        0.10
  HS02004792           JUNCTION     0.04     0.13     9.66     0  01:38        0.13
  HS02004799           JUNCTION     0.13     0.32     9.53     0  01:38        0.32
  HS02004802           JUNCTION     0.16     0.28     9.41     0  01:41        0.28
  HS02004807           JUNCTION     0.12     0.25     9.42     0  01:41        0.25
  HS02004817           JUNCTION     0.43     0.57     9.42     0  01:42        0.57
  HS02004824           JUNCTION     0.03     0.05     9.46     0  01:53        0.05
  HS02004830           JUNCTION     0.04     0.07     9.54     0  01:43        0.07
  HS02004837           JUNCTION     0.03     0.06     9.64     0  01:42        0.06
  HS02004842           JUNCTION     0.33     0.37     9.64     0  01:43        0.37
  HS02004848           JUNCTION     0.01     0.04     9.64     0  01:42        0.04
  HS02004852           JUNCTION     0.01     0.04     9.55     0  01:44        0.04
  HS02004856           JUNCTION     0.07     0.12     9.54     0  01:42        0.12
  HS02004862           JUNCTION     0.02     0.07     9.45     0  01:42        0.07
  HS02004870           JUNCTION     0.02     0.05     9.34     0  01:41        0.05
  HS02004876           JUNCTION     0.05     0.11     9.14     0  01:32        0.11
  HS02004881           JUNCTION     0.01     0.03     9.06     0  01:41        0.03
  HS02004901           JUNCTION     0.13     0.27    10.09     0  01:38        0.27
  WS02001211           JUNCTION     0.60     0.63     5.47     0  02:22        0.63
  WS02001212           JUNCTION     0.33     0.36     5.43     0  02:21        0.36
  WS02001213           JUNCTION     0.52     0.62     5.38     0  02:20        0.62
  WS02003059           JUNCTION     0.58     0.68     5.37     0  02:19        0.68
  WS02003060           JUNCTION     0.28     0.41     5.34     0  02:19        0.41
  WS02003066           JUNCTION     0.15     0.27     5.82     0  02:18        0.27
  WS02003067           JUNCTION     0.41     0.65     5.97     0  02:18        0.65
  WS02003069           JUNCTION     0.31     0.46     5.05     0  02:19        0.46
  WS02003072           JUNCTION     0.38     0.53     4.90     0  02:20        0.53
  WS02003073           JUNCTION     0.22     0.32     4.38     0  02:21        0.32
  WS02004138           JUNCTION     0.13     0.14     7.39     0  00:32        0.14
  WS02004139           JUNCTION     0.54     0.57     5.48     0  02:22        0.57
  WS02004401           JUNCTION     0.48     0.77     6.77     0  02:15        0.77
  WS02004402           JUNCTION     0.52     0.80     6.76     0  02:06        0.80
  WS02004403           JUNCTION     0.54     0.82     6.75     0  02:06        0.82
  WS02004404           JUNCTION     0.62     0.89     6.74     0  02:06        0.89
  WS02004405           JUNCTION     0.62     0.89     6.74     0  02:06        0.89
  WS02004406           JUNCTION     0.63     0.90     6.73     0  02:06        0.89
  WS02004407           JUNCTION     0.12     0.26     6.58     0  02:07        0.26
  WS02004409           JUNCTION     0.27     0.58     6.35     0  02:17        0.58
  WS02004410           JUNCTION     0.30     0.60     6.32     0  02:17        0.60
  WS02004411           JUNCTION     0.33     0.61     6.29     0  02:17        0.61
  WS02004412           JUNCTION     0.35     0.63     6.27     0  02:18        0.63
  WS02004413           JUNCTION     0.51     0.79     6.26     0  02:18        0.79
  WS02006109           JUNCTION     0.52     0.87     7.48     0  02:03        0.86
  WS02006110           JUNCTION     0.53     0.85     7.43     0  02:04        0.85
  WS02006111           JUNCTION     0.13     0.26     6.97     0  02:04        0.26
  WS02006112           JUNCTION     0.62     0.95     6.83     0  02:05        0.95
  WS02006113           JUNCTION     0.19     0.41     7.30     0  02:04        0.41
  WS02006115           JUNCTION     0.36     0.66     6.80     0  02:15        0.66
  WS02006116           JUNCTION     0.45     0.74     6.78     0  02:15        0.74
  WS02006228           JUNCTION     0.49     0.88     7.53     0  02:03        0.88
  WS02006229           JUNCTION     0.46     0.87     7.56     0  02:04        0.87
  WS02006230           JUNCTION     0.41     0.83     7.58     0  02:03        0.83
  WS02006231           JUNCTION     0.18     0.48     7.61     0  02:13        0.48
  WS02006232           JUNCTION     0.28     0.59     7.63     0  02:12        0.59
  WS02006234           JUNCTION     0.16     0.49     7.65     0  02:12        0.48
  WS02006235           JUNCTION     0.19     0.51     7.67     0  00:06        0.50
  WS02006238           JUNCTION     0.21     0.54     7.69     0  00:06        0.53
  WS02006239           JUNCTION     0.16     0.53     7.74     0  00:06        0.51
  WS02006240           JUNCTION     0.14     0.50     7.80     0  00:06        0.50
  WS02006242           JUNCTION     0.19     0.61     7.88     0  00:05        0.61
  WS02006243           JUNCTION     0.11     0.51     7.93     0  00:05        0.49
  WS02006245           JUNCTION     0.12     0.53     8.01     0  00:05        0.51
  WS02006247           JUNCTION     0.14     0.57     8.07     0  00:05        0.57
  WS02006248           JUNCTION     0.11     0.53     8.12     0  00:04        0.53
  WS02006249           JUNCTION     0.15     0.58     8.18     0  00:05        0.58
  WS02006251           JUNCTION     0.13     0.60     8.27     0  00:04        0.60
  WS02006252           JUNCTION     0.13     1.50     9.74     0  00:00        0.58
  WS02006253           JUNCTION     0.16     0.63     8.27     0  00:04        0.63
  WS02006256           JUNCTION     0.46     2.35     9.28     0  00:00        2.35
  WS02006280           JUNCTION     0.07     0.18     8.45     0  01:41        0.18
  WS02006284           JUNCTION     0.36     0.53     8.93     0  01:41        0.53
  WS02006287           JUNCTION     0.10     0.27     9.22     0  01:41        0.26
  WSF200               JUNCTION     0.12     0.27     5.50     0  02:18        0.27
  YS02001580           JUNCTION     0.00     0.00     8.54     0  00:00        0.00
  YS02001583           JUNCTION     0.00     0.00     8.50     0  00:00        0.00
  YS02001586           JUNCTION     0.04     0.10     8.27     0  01:50        0.10
  YS02001590           JUNCTION     0.09     0.20     8.06     0  01:51        0.20
  YS02001593           JUNCTION     0.04     0.09     7.96     0  01:51        0.09
  YS02001596           JUNCTION     0.04     0.11     7.52     0  01:51        0.11
  YS02001600           JUNCTION     0.05     0.17     7.30     0  01:44        0.17
  YS02001601           JUNCTION     0.22     0.46     7.30     0  01:44        0.46
  YS02001602           JUNCTION     0.16     0.38     7.29     0  01:45        0.38
  YS02001605           JUNCTION     0.16     0.37     7.27     0  01:47        0.37
  YS02001607           JUNCTION     0.19     0.40     7.24     0  01:48        0.40
  YS02001610           JUNCTION     0.24     0.44     7.24     0  01:48        0.44
  YS02001613           JUNCTION     0.20     0.40     7.24     0  01:47        0.40
  YS02001616           JUNCTION     0.13     0.32     7.23     0  01:49        0.32
  YS02001619           JUNCTION     0.11     0.28     7.21     0  01:49        0.28
  YS02001622           JUNCTION     0.10     0.26     7.16     0  01:50        0.26
  YS02001625           JUNCTION     0.36     0.56     7.17     0  01:51        0.56
  YS02001629           JUNCTION     0.18     0.43     6.98     0  01:51        0.43
  YS02001633           JUNCTION     0.26     0.52     6.97     0  01:52        0.52
  YS02001641           JUNCTION     0.27     0.52     6.95     0  01:52        0.52
  YS02001644           JUNCTION     0.28     0.52     6.95     0  01:52        0.52
  YS02001647           JUNCTION     0.09     0.23     6.84     0  01:52        0.23
  YS02001649           JUNCTION     0.19     0.26     6.65     0  01:51        0.26
  YS02001652           JUNCTION     0.03     0.09     6.69     0  01:37        0.09
  YS02001655           JUNCTION     0.03     0.09     6.94     0  01:36        0.09
  YS02001658           JUNCTION     0.03     0.08     7.23     0  01:36        0.08
  YS02001661           JUNCTION     0.09     0.15     7.55     0  01:36        0.15
  YS02001664           JUNCTION     0.02     0.07     8.00     0  01:36        0.07
  YS02001745           JUNCTION     0.02     0.07     7.58     0  01:36        0.07
  YS02001748           JUNCTION     0.02     0.08     7.15     0  01:35        0.08
  YS02001751           JUNCTION     0.03     0.07     6.95     0  01:36        0.07
  YS02001754           JUNCTION     0.03     0.07     6.68     0  01:36        0.07
  YS02001757           JUNCTION     0.26     0.35     6.61     0  06:35        0.35
  YS02001759           JUNCTION     0.18     0.25     6.61     0  06:27        0.25
  YS02001762           JUNCTION     0.16     0.21     6.61     0  06:29        0.21
  YS02001765           JUNCTION     0.12     0.16     6.61     0  06:27        0.16
  YS02001767           JUNCTION     0.11     0.16     6.65     0  01:41        0.16
  YS02001770           JUNCTION     0.12     0.20     6.70     0  01:40        0.20
  YS02001774           JUNCTION     0.18     0.28     6.70     0  01:40        0.28
  YS02001779           JUNCTION     0.00     0.01     6.70     0  01:39        0.01
  YS02001783           JUNCTION     0.09     0.24     6.38     0  01:50        0.24
  YS02001784           JUNCTION     0.12     0.28     6.35     0  01:50        0.28
  YS02001786           JUNCTION     0.11     0.24     6.27     0  01:51        0.24
  YS02001788           JUNCTION     0.07     0.17     6.15     0  01:51        0.17
  YS02001790           JUNCTION     0.09     0.21     5.85     0  01:51        0.21
  YS02001791           JUNCTION     0.06     0.14     5.61     0  01:51        0.14
  YS02001793           JUNCTION     0.03     0.19     5.02     0  02:21        0.16
  YS02001882           JUNCTION     0.13     0.28     7.00     0  01:48        0.28
  YS02001884           JUNCTION     0.22     0.38     7.00     0  01:51        0.38
  YS02001887           JUNCTION     0.30     0.46     7.00     0  01:48        0.46
  YS02001890           JUNCTION     0.33     0.49     7.00     0  01:50        0.49
  YS02001895           JUNCTION     0.11     0.25     7.00     0  01:50        0.25
  YS02001898           JUNCTION     0.11     0.26     6.99     0  01:46        0.26
  YS02001901           JUNCTION     0.22     0.38     6.99     0  01:50        0.38
  YS02001904           JUNCTION     0.20     0.36     6.99     0  01:50        0.36
  YS02001907           JUNCTION     0.52     0.70     6.99     0  01:49        0.70
  YS02001910           JUNCTION     0.32     0.48     6.99     0  01:51        0.48
  YS02001915           JUNCTION     0.13     0.27     6.99     0  01:48        0.27
  YS02001918           JUNCTION     0.04     0.08     7.15     0  01:53        0.08
  YS02001920           JUNCTION     0.12     0.18     7.19     0  01:52        0.18
  YS02001923           JUNCTION     0.03     0.07     7.33     0  01:52        0.07
  YS02001926           JUNCTION     0.07     0.15     7.59     0  01:51        0.15
  YS02001929           JUNCTION     0.03     0.07     7.76     0  01:51        0.07
  YS02006553           JUNCTION     0.52     0.71     6.99     0  01:49        0.71
  YS02006556           JUNCTION     0.50     0.68     6.99     0  01:49        0.68
  YS02006558           JUNCTION     0.54     0.72     6.99     0  01:49        0.72
  YS02006561           JUNCTION     0.06     0.14     6.80     0  01:50        0.14
  YS02163301           JUNCTION     0.21     0.46     6.98     0  01:51        0.46
  YS02163601           JUNCTION     0.31     0.57     6.97     0  01:52        0.57
  YS02164001           JUNCTION     0.25     0.50     6.96     0  01:52        0.50
  YSB1154              JUNCTION     0.25     0.44     9.50     0  01:38        0.44
  YSB1171              JUNCTION     0.40     0.59     9.50     0  01:39        0.59
  YSB1174              JUNCTION     0.21     0.39     9.50     0  01:39        0.39
  YSB6556              JUNCTION     0.15     0.33     9.49     0  01:39        0.33
  CC-1                 OUTFALL      0.00     0.00     0.00     0  00:00        0.00
  CC-2                 OUTFALL      0.00     0.00     0.00     0  00:00        0.00
  JK-1                 OUTFALL      0.00     0.00     0.00     0  00:00        0.00
  JK-2                 OUTFALL      0.00     0.00     0.00     0  00:00        0.00
  WSC                  OUTFALL      0.22     0.32     0.99     0  02:21        0.32
  CC-storage           STORAGE      0.95     1.11     6.61     0  06:33        1.11
  JK-storage           STORAGE      2.82     4.20     5.00     0  02:03        4.19
  XR-storage           STORAGE      7.94     9.26     7.26     0  08:00        9.26
  
  
  *******************
  Node Inflow Summary
  *******************
  
  -------------------------------------------------------------------------------------------------
                                  Maximum  Maximum                  Lateral       Total        Flow
                                  Lateral    Total  Time of Max      Inflow      Inflow     Balance
                                   Inflow   Inflow   Occurrence      Volume      Volume       Error
  Node                 Type           LPS      LPS  days hr:min    10^6 ltr    10^6 ltr     Percent
  -------------------------------------------------------------------------------------------------
  HS02004478           JUNCTION      0.00   329.76     0  01:40           0        1.67       0.023
  HS02004479           JUNCTION      0.00    36.53     0  01:40           0       0.168       0.434
  HS02004480           JUNCTION      0.00   248.06     0  01:39           0         1.1       0.092
  HS02004770           JUNCTION     68.50    84.02     0  01:36       0.289       0.352       0.882
  HS02004777           JUNCTION      0.03    83.66     0  01:37    0.000864        0.35       1.495
  HS02004785           JUNCTION      0.15    83.62     0  01:38     0.00432        0.35       0.134
  HS02004788           JUNCTION     26.38   109.89     0  01:38       0.156       0.505       0.077
  HS02004792           JUNCTION     86.65   196.02     0  01:38       0.379       0.883       0.047
  HS02004799           JUNCTION     15.78   211.61     0  01:38      0.0667       0.949       0.284
  HS02004802           JUNCTION      0.00    84.46     0  01:46           0       0.584       0.683
  HS02004807           JUNCTION     20.61    84.01     0  01:45       0.086       0.586       0.743
  HS02004817           JUNCTION      0.60    66.22     0  01:53      0.0173       0.516       3.332
  HS02004824           JUNCTION     30.72    65.63     0  01:53       0.174         0.5       0.108
  HS02004830           JUNCTION      0.15    35.27     0  01:42     0.00432       0.327       0.377
  HS02004837           JUNCTION     26.22    35.13     0  01:42       0.271       0.336       0.243
  HS02004842           JUNCTION      0.00    10.58     0  01:55           0      0.0789      19.716
  HS02004848           JUNCTION     26.01    26.01     0  01:52       0.137       0.137       0.030
  HS02004852           JUNCTION      0.00    15.78     0  01:42           0      0.0714       0.063
  HS02004856           JUNCTION      8.08    23.38     0  01:41       0.034       0.105       1.374
  HS02004862           JUNCTION     11.92    35.27     0  01:42      0.0634       0.167       0.097
  HS02004870           JUNCTION     11.09    45.75     0  01:41      0.0466       0.214       0.047
  HS02004876           JUNCTION     12.31    57.93     0  01:41      0.0564        0.27       0.185
  HS02004881           JUNCTION      6.16    63.70     0  01:41      0.0253       0.295       0.032
  HS02004901           JUNCTION     15.87    15.87     0  01:35      0.0644      0.0646       2.782
  WS02001211           JUNCTION      7.35   198.91     0  02:30       0.212        5.44       0.611
  WS02001212           JUNCTION      0.00   200.29     0  02:29           0        5.41       0.290
  WS02001213           JUNCTION      0.00   201.53     0  02:28           0        5.39       0.333
  WS02003059           JUNCTION      0.00   204.44     0  02:28           0        5.38       0.595
  WS02003060           JUNCTION     16.53   633.34     0  02:18       0.476        8.57       0.171
  WS02003066           JUNCTION      0.00   422.79     0  02:18           0        2.75       0.053
  WS02003067           JUNCTION      0.00   422.65     0  02:18           0        2.75       0.161
  WS02003069           JUNCTION      0.32   633.70     0  02:19     0.00922        8.56       0.180
  WS02003072           JUNCTION      0.00   633.55     0  02:20           0        8.54       0.245
  WS02003073           JUNCTION      1.82   635.21     0  02:20      0.0524        8.57       0.254
  WS02004138           JUNCTION      0.00   380.00     0  00:00           0        5.25       0.054
  WS02004139           JUNCTION      0.32   190.32     0  00:32     0.00924        5.26       0.509
  WS02004401           JUNCTION      0.00   442.73     0  02:05           0        2.86       0.380
  WS02004402           JUNCTION      0.00   438.81     0  02:05           0        2.85       0.384
  WS02004403           JUNCTION      0.00   435.09     0  02:05           0        2.84       0.374
  WS02004404           JUNCTION      0.16   432.71     0  02:06     0.00467        2.83       0.317
  WS02004405           JUNCTION      0.04   432.43     0  02:06      0.0011        2.82       0.453
  WS02004406           JUNCTION      0.00   432.02     0  02:06           0        2.81       0.769
  WS02004407           JUNCTION      0.00   431.27     0  02:06           0        2.79       0.056
  WS02004409           JUNCTION      0.00   430.83     0  02:07           0        2.79       0.119
  WS02004410           JUNCTION      0.00   429.14     0  02:07           0        2.79       0.180
  WS02004411           JUNCTION      0.00   427.41     0  02:07           0        2.78       0.224
  WS02004412           JUNCTION      0.00   424.86     0  02:17           0        2.77       0.293
  WS02004413           JUNCTION      0.00   423.41     0  02:17           0        2.77       0.511
  WS02006109           JUNCTION      1.23   443.66     0  02:04      0.0354        2.85       0.368
  WS02006110           JUNCTION      0.00   443.63     0  02:04           0        2.84       0.272
  WS02006111           JUNCTION      0.00   452.77     0  02:04           0        2.83       0.041
  WS02006112           JUNCTION     14.06   451.34     0  02:04      0.0582        2.89       0.638
  WS02006113           JUNCTION      0.00   442.56     0  02:04           0        2.84       0.075
  WS02006115           JUNCTION      0.00   448.94     0  02:05           0        2.87       0.254
  WS02006116           JUNCTION      0.00   445.93     0  02:05           0        2.87       0.226
  WS02006228           JUNCTION      0.00   442.33     0  02:03           0        2.83       0.210
  WS02006229           JUNCTION      0.00   443.49     0  02:03           0        2.84       0.312
  WS02006230           JUNCTION     10.28   255.53     0  00:08       0.296        1.17       0.623
  WS02006231           JUNCTION      0.00   257.53     0  00:06           0       0.876      -0.148
  WS02006232           JUNCTION      0.00   276.54     0  00:07           0        0.88       0.812
  WS02006234           JUNCTION      0.00   311.44     0  00:06           0       0.874      -0.612
  WS02006235           JUNCTION      0.00   316.10     0  00:06           0       0.944       0.720
  WS02006238           JUNCTION      0.00   322.51     0  00:06           0       0.788      -0.389
  WS02006239           JUNCTION      0.00   329.34     0  00:06           0       0.755      -0.543
  WS02006240           JUNCTION      0.00   348.15     0  00:05           0       0.725       0.088
  WS02006242           JUNCTION      0.00   357.32     0  00:05           0       0.699       0.079
  WS02006243           JUNCTION      0.00   371.48     0  00:05           0       0.683       0.375
  WS02006245           JUNCTION      0.00   383.09     0  00:05           0       0.685       1.165
  WS02006247           JUNCTION      0.00   385.59     0  00:04           0       0.684       0.087
  WS02006248           JUNCTION      0.00   390.96     0  00:04           0       0.684      -0.026
  WS02006249           JUNCTION      0.00   400.45     0  00:02           0        0.69       0.922
  WS02006251           JUNCTION      0.08   456.89     0  00:01     0.00222       0.705      -0.005
  WS02006252           JUNCTION      0.00   400.00     0  00:00           0       0.386      -0.070
  WS02006253           JUNCTION      2.03   197.53     0  00:00     0.00804       0.318       0.372
  WS02006256           JUNCTION      0.00   300.00     0  00:00           0       0.232      -1.870
  WS02006280           JUNCTION      0.00   329.77     0  01:41           0        1.67       0.005
  WS02006284           JUNCTION      0.10   329.82     0  01:41     0.00275        1.67       0.026
  WS02006287           JUNCTION      0.00   329.79     0  01:41           0        1.67       0.042
  WSF200               JUNCTION      0.00   422.76     0  02:18           0        2.75       0.032
  YS02001580           JUNCTION      0.00     0.00     0  00:00           0           0       0.000 ltr
  YS02001583           JUNCTION      0.00     0.00     0  00:00           0           0       0.000 ltr
  YS02001586           JUNCTION     34.37    34.37     0  01:50       0.191       0.191       0.039
  YS02001590           JUNCTION      0.00    34.36     0  01:50           0       0.191       0.023
  YS02001593           JUNCTION      0.00    34.36     0  01:51           0       0.191       0.009
  YS02001596           JUNCTION      0.00    34.36     0  01:51           0       0.191       0.010
  YS02001600           JUNCTION      0.00    34.36     0  01:51           0       0.191       0.015
  YS02001601           JUNCTION     62.64    95.79     0  01:40       0.305       0.496       0.176
  YS02001602           JUNCTION      0.00    95.40     0  01:40           0       0.495       0.081
  YS02001605           JUNCTION      0.00    94.99     0  01:42           0       0.495       0.083
  YS02001607           JUNCTION      0.00    94.50     0  01:43           0       0.494       0.384
  YS02001610           JUNCTION      0.00    94.04     0  01:43           0       0.492       0.460
  YS02001613           JUNCTION      0.00    93.84     0  01:44           0       0.491       0.326
  YS02001616           JUNCTION      0.00    93.57     0  01:46           0       0.491       0.080
  YS02001619           JUNCTION     53.23   146.34     0  01:48       0.277       0.767       0.001
  YS02001622           JUNCTION      0.00   146.30     0  01:49           0       0.765       0.015
  YS02001625           JUNCTION      0.00   146.29     0  01:48           0       0.765       1.258
  YS02001629           JUNCTION      0.00   146.20     0  01:51           0       0.756       0.061
  YS02001633           JUNCTION     43.35   188.24     0  01:51       0.214       0.971       0.354
  YS02001641           JUNCTION      0.00   188.31     0  01:52           0       0.971       0.289
  YS02001644           JUNCTION     36.68   222.53     0  01:52        0.17        1.13       0.292
  YS02001647           JUNCTION      0.00   222.52     0  01:52           0        1.12       0.015
  YS02001649           JUNCTION      0.00   251.64     0  01:51           0        1.27       0.455
  YS02001652           JUNCTION      0.00    33.94     0  01:37           0       0.145      -0.059
  YS02001655           JUNCTION      0.15    33.95     0  01:36     0.00443       0.145       0.018
  YS02001658           JUNCTION      0.00    33.80     0  01:36           0        0.14       0.000
  YS02001661           JUNCTION      0.00    33.81     0  01:36           0       0.141       0.235
  YS02001664           JUNCTION     33.81    33.81     0  01:36       0.141       0.141      -0.023
  YS02001745           JUNCTION     22.97    22.97     0  01:36      0.0952      0.0952      -0.000
  YS02001748           JUNCTION      0.04    23.02     0  01:36      0.0013      0.0965      -0.002
  YS02001751           JUNCTION      0.01    23.03     0  01:36    0.000317      0.0968       0.013
  YS02001754           JUNCTION      0.26    23.28     0  01:36     0.00749       0.104      -0.119
  YS02001757           JUNCTION      0.00   344.63     0  01:48           0        1.72       1.820
  YS02001759           JUNCTION     32.22    78.53     0  01:39       0.134       0.352       1.251
  YS02001762           JUNCTION      0.00    47.76     0  01:41           0       0.221       1.471
  YS02001765           JUNCTION      0.00    47.78     0  01:41           0       0.224       1.143
  YS02001767           JUNCTION      0.54    47.85     0  01:40      0.0154       0.226       1.108
  YS02001770           JUNCTION     47.62    47.62     0  01:38       0.215       0.219       0.821
  YS02001774           JUNCTION      0.00     8.47     0  01:16           0     0.00671      75.719
  YS02001779           JUNCTION      0.01     0.78     0  01:32    0.000144    0.000249       0.302
  YS02001783           JUNCTION      0.00   131.97     0  01:50           0       0.676       0.040
  YS02001784           JUNCTION      1.06   132.95     0  01:50      0.0305       0.707       0.073
  YS02001786           JUNCTION      0.06   132.84     0  01:50     0.00162       0.708       0.093
  YS02001788           JUNCTION      0.07   132.84     0  01:51     0.00204       0.709       0.043
  YS02001790           JUNCTION      0.15   132.96     0  01:51     0.00446       0.713       0.053
  YS02001791           JUNCTION      0.00   132.91     0  01:51           0       0.713       0.027
  YS02001793           JUNCTION      0.00   138.36     0  01:59           0       0.713       0.039
  YS02001882           JUNCTION      0.00     4.69     0  01:32           0     0.00325      23.989
  YS02001884           JUNCTION      0.00    11.76     0  01:32           0      0.0128      24.226
  YS02001887           JUNCTION     37.13    37.13     0  01:34        0.16       0.167       2.758
  YS02001890           JUNCTION      0.00    34.24     0  01:43           0       0.152       3.473
  YS02001895           JUNCTION      0.00    32.70     0  01:46           0       0.147       1.037
  YS02001898           JUNCTION      0.00    32.28     0  01:46           0       0.146       0.262
  YS02001901           JUNCTION      0.00    33.07     0  01:50           0       0.148       2.232
  YS02001904           JUNCTION      0.00    33.06     0  01:47           0       0.152       1.942
  YS02001907           JUNCTION      0.00    91.97     0  01:49           0       0.514       3.631
  YS02001910           JUNCTION      0.00    64.32     0  01:46           0       0.369       1.979
  YS02001915           JUNCTION     38.89    60.86     0  01:43       0.183        0.37       0.454
  YS02001918           JUNCTION      0.00    23.00     0  01:52           0       0.187       0.150
  YS02001920           JUNCTION      2.87    23.01     0  01:52      0.0827       0.188       0.552
  YS02001923           JUNCTION      0.04    20.14     0  01:51     0.00109       0.106       0.014
  YS02001926           JUNCTION      0.05    20.12     0  01:51      0.0015       0.105       0.195
  YS02001929           JUNCTION     20.06    20.06     0  01:51       0.103       0.103      -0.008
  YS02006553           JUNCTION      0.00    91.83     0  01:52           0       0.505       2.396
  YS02006556           JUNCTION      0.00    91.96     0  01:56           0       0.512       1.643
  YS02006558           JUNCTION     45.99   132.18     0  01:49       0.217       0.705       0.490
  YS02006561           JUNCTION      0.00   132.02     0  01:49           0       0.676       0.015
  YS02163301           JUNCTION      0.00   146.18     0  01:51           0       0.759       0.204
  YS02163601           JUNCTION      0.11   188.28     0  01:51     0.00317       0.968       0.507
  YS02164001           JUNCTION      0.00   188.28     0  01:52           0       0.967       0.249
  YSB1154              JUNCTION     20.61    20.61     0  01:38      0.0929      0.0936       1.559
  YSB1171              JUNCTION      0.00    37.08     0  01:37           0       0.166       3.947
  YSB1174              JUNCTION     16.53    16.53     0  01:34      0.0658      0.0663       1.967
  YSB6556              JUNCTION      0.00    20.89     0  01:39           0      0.0944       1.335
  CC-1                 OUTFALL       0.00   683.00     0  00:00           0       0.206       0.000
  CC-2                 OUTFALL       0.00   683.00     0  00:00           0       0.206       0.000
  JK-1                 OUTFALL       0.00  1000.00     0  00:00           0       0.387       0.000
  JK-2                 OUTFALL       0.00  1000.00     0  00:00           0      0.0484       0.000
  WSC                  OUTFALL       0.00   634.99     0  02:21           0        8.55       0.000
  CC-storage           STORAGE       0.00   344.55     0  01:49           0        3.91       0.425
  JK-storage           STORAGE       0.00   345.18     0  02:21           0       0.863       0.784
  XR-storage           STORAGE     200.00   200.00     0  00:00        5.76        6.36       0.001
  
  
  **********************
  Node Surcharge Summary
  **********************
  
  Surcharging occurs when water rises above the top of the highest conduit.
  ---------------------------------------------------------------------
                                               Max. Height   Min. Depth
                                   Hours       Above Crown    Below Rim
  Node                 Type      Surcharged         Meters       Meters
  ---------------------------------------------------------------------
  WS02006109           JUNCTION        0.16          0.046        1.774
  WS02006228           JUNCTION        0.15          0.051        2.149
  WS02006252           JUNCTION        0.08          1.100        0.000
  WS02006256           JUNCTION        7.98          2.050        0.000
  
  
  *********************
  Node Flooding Summary
  *********************
  
  Flooding refers to all water that overflows a node, whether it ponds or not.
  --------------------------------------------------------------------------
                                                             Total   Maximum
                                 Maximum   Time of Max       Flood    Ponded
                        Hours       Rate    Occurrence      Volume     Depth
  Node                 Flooded       LPS   days hr:min    10^6 ltr    Meters
  --------------------------------------------------------------------------
  WS02006252              0.01    245.63      0  00:00       0.000     0.000
  WS02006256              0.20    293.19      0  00:00       0.032     0.000
  
  
  **********************
  Storage Volume Summary
  **********************
  
  --------------------------------------------------------------------------------------------------
                         Average     Avg  Evap Exfil       Maximum     Max    Time of Max    Maximum
                          Volume    Pcnt  Pcnt  Pcnt        Volume    Pcnt     Occurrence    Outflow
  Storage Unit           1000 m3    Full  Loss  Loss       1000 m3    Full    days hr:min        LPS
  --------------------------------------------------------------------------------------------------
  CC-storage               2.656      41     0     0         3.104      48       0  06:33    1783.53
  JK-storage               0.141      49     0     0         0.211      72       0  02:03    2300.00
  XR-storage               0.953      66     0     0         1.111      77       0  08:00     380.00
  
  
  ***********************
  Outfall Loading Summary
  ***********************
  
  -----------------------------------------------------------
                         Flow       Avg       Max       Total
                         Freq      Flow      Flow      Volume
  Outfall Node           Pcnt       LPS       LPS    10^6 ltr
  -----------------------------------------------------------
  CC-1                   0.73    683.00    683.00       0.206
  CC-2                   0.73    683.00    683.00       0.206
  JK-1                   1.80   1000.00   1000.00       0.387
  JK-2                   0.17   1000.00   1000.00       0.048
  WSC                   99.95    328.80    634.99       8.552
  -----------------------------------------------------------
  System                20.68   3694.80    634.99       9.399
  
  
  ********************
  Link Flow Summary
  ********************
  
  -----------------------------------------------------------------------------
                                 Maximum  Time of Max   Maximum    Max/    Max/
                                  |Flow|   Occurrence   |Veloc|    Full    Full
  Link                 Type          LPS  days hr:min     m/sec    Flow   Depth
  -----------------------------------------------------------------------------
  1                    CONDUIT    634.99     0  02:21      2.94    0.22    0.32
  HS02004478WS02006287 CONDUIT    329.79     0  01:41      1.60    0.09    0.23
  HS02004479HS02004480 CONDUIT     36.86     0  01:41      0.30    0.04    0.39
  HS02004480HS02004478 CONDUIT    247.68     0  01:39      1.16    1.04    0.30
  HS02004770HS02004777 CONDUIT     83.63     0  01:37      0.30    0.15    0.39
  HS02004777HS02004785 CONDUIT     83.47     0  01:38      0.37    0.10    0.33
  HS02004785HS02004788 CONDUIT     83.58     0  01:39      0.64    0.63    0.19
  HS02004788HS02004792 CONDUIT    109.85     0  01:39      0.97    0.07    0.16
  HS02004792HS02004799 CONDUIT    195.97     0  01:38      0.87    0.12    0.32
  HS02004799HS02004480 CONDUIT    211.55     0  01:39      0.76    0.27    0.40
  HS02004802HS02004478 CONDUIT     84.90     0  01:46      0.39    0.07    0.32
  HS02004807HS02004802 CONDUIT     84.46     0  01:46      0.33    0.16    0.37
  HS02004817HS02004807 CONDUIT     66.61     0  01:53      0.17    0.04    0.59
  HS02004817HS02004824 CONDUIT     65.62     0  01:53      0.21    0.03    0.45
  HS02004824HS02004830 CONDUIT     35.27     0  01:43      0.55    0.05    0.09
  HS02004830HS02004837 CONDUIT     35.12     0  01:42      0.52    0.03    0.10
  HS02004837HS02004842 CONDUIT     10.77     0  01:57      0.41    0.01    0.31
  HS02004842HS02004848 CONDUIT     10.58     0  01:55      0.05    0.01    0.29
  HS02004848HS02004852 CONDUIT     15.78     0  01:42      0.40    0.02    0.06
  HS02004852HS02004856 CONDUIT     15.76     0  01:44      0.20    0.02    0.11
  HS02004856HS02004862 CONDUIT     23.36     0  01:42      0.42    0.02    0.08
  HS02004862HS02004870 CONDUIT     35.25     0  01:42      0.59    0.04    0.09
  HS02004870HS02004876 CONDUIT     45.74     0  01:41      0.56    0.03    0.12
  HS02004876HS02004881 CONDUIT     57.93     0  01:42      0.83    0.62    0.10
  HS02004881HS02006253 CONDUIT     63.70     0  01:41      2.01    0.01    0.21
  HS02004901HS02004770 CONDUIT     15.56     0  01:37      0.06    0.06    0.38
  WS02001211WS02001212 CONDUIT    200.29     0  02:29      0.54    0.15    0.50
  WS02001212WS02001213 CONDUIT    201.53     0  02:28      1.03    0.31    0.33
  WS02001213WS02003059 CONDUIT    204.44     0  02:28      0.47    0.34    0.64
  WS02003059WS02003060 CONDUIT    208.17     0  02:27      0.67    0.14    0.55
  WS02003060WS02003069 CONDUIT    633.38     0  02:19      1.70    0.25    0.36
  WS02003066WSF200     CONDUIT    422.76     0  02:18      2.58    0.07    0.20
  WS02003067WS02003066 CONDUIT    422.79     0  02:18      1.05    0.14    0.38
  WS02003069WS02003072 CONDUIT    633.55     0  02:20      1.43    0.31    0.41
  WS02003072WS02003073 CONDUIT    633.39     0  02:20      1.50    1.37    0.40
  WS02004138WS02004139 CONDUIT    190.00     0  00:32      2.15    0.04    0.33
  WS02004139WS02001211 CONDUIT    191.56     0  02:30      0.54    0.24    0.46
  WS02004401WS02004402 CONDUIT    438.81     0  02:05      0.97    0.53    0.78
  WS02004402WS02004403 CONDUIT    435.09     0  02:05      0.98    0.63    0.81
  WS02004403WS02004404 CONDUIT    432.55     0  02:06      0.92    0.31    0.85
  WS02004404WS02004405 CONDUIT    432.39     0  02:06      1.08    4.24    0.89
  WS02004405WS02004406 CONDUIT    432.02     0  02:06      0.98    0.85    0.89
  WS02004406WS02004407 CONDUIT    431.27     0  02:06      0.91    0.19    0.58
  WS02004407WS02004409 CONDUIT    430.83     0  02:07      1.37    0.15    0.42
  WS02004409WS02004410 CONDUIT    429.14     0  02:07      0.89    0.56    0.59
  WS02004410WS02004411 CONDUIT    427.41     0  02:07      0.86    0.58    0.61
  WS02004411WS02004412 CONDUIT    424.86     0  02:17      0.83    0.60    0.62
  WS02004412WS02004413 CONDUIT    423.41     0  02:17      0.71    0.28    0.71
  WS02004413WS02003067 CONDUIT    422.65     0  02:18      0.98    0.18    0.54
  WS02006109WS02006110 CONDUIT    443.63     0  02:04      0.89    0.85    0.96
  WS02006110WS02006113 CONDUIT    442.56     0  02:04      1.09    0.40    0.75
  WS02006111WS02006112 CONDUIT    442.39     0  02:04      1.75    0.21    0.66
  WS02006112WS02006115 CONDUIT    448.94     0  02:05      0.67    0.26    0.80
  WS02006113WS02006111 CONDUIT    452.77     0  02:04      2.29    0.54    0.42
  WS02006115WS02006116 CONDUIT    445.93     0  02:05      0.97    0.57    0.67
  WS02006116WS02004401 CONDUIT    442.73     0  02:05      0.98    0.61    0.75
  WS02006228WS02006109 CONDUIT    442.43     0  02:04      1.02    1.93    1.00
  WS02006229WS02006228 CONDUIT    442.33     0  02:03      1.06    1.47    1.00
  WS02006230WS02006229 CONDUIT    258.09     0  00:08      1.18    5.74    1.00
  WS02006231WS02006230 CONDUIT    245.25     0  00:08      1.18    3.72    0.67
  WS02006232WS02006231 CONDUIT    257.53     0  00:06      0.98    0.54    0.76
  WS02006234WS02006232 CONDUIT    276.54     0  00:07      1.41    0.56    0.77
  WS02006235WS02006234 CONDUIT    311.44     0  00:06      1.23    3.29    0.68
  WS02006238WS02006235 CONDUIT    316.10     0  00:06      1.45    0.71    0.75
  WS02006239WS02006238 CONDUIT    322.51     0  00:06      1.12    1.03    0.75
  WS02006240WS02006239 CONDUIT    329.34     0  00:06      1.26    1.04    0.71
  WS02006242WS02006240 CONDUIT    348.15     0  00:05      1.14    1.38    0.78
  WS02006243WS02006242 CONDUIT    357.32     0  00:05      1.34    0.76    0.78
  WS02006245WS02006243 CONDUIT    371.48     0  00:05      1.39    1.10    0.73
  WS02006247WS02006245 CONDUIT    383.09     0  00:05      1.37    3.04    0.78
  WS02006248WS02006247 CONDUIT    385.59     0  00:04      1.38    0.84    0.78
  WS02006249WS02006248 CONDUIT    390.96     0  00:04      1.38    2.14    0.78
  WS02006251WS02006249 CONDUIT    400.45     0  00:02      1.68    1.15    0.84
  WS02006252WS02006251 CONDUIT    400.21     0  00:00      3.88    1.47    1.00
  WS02006253WS02006251 CONDUIT    197.53     0  00:00      1.19    0.59    0.87
  WS02006256WS02006235 CONDUIT    288.93     0  00:00      4.23    3.06    1.00
  WS02006280WS02006229 CONDUIT    329.78     0  01:41      3.44    0.07    0.18
  WS02006284WS02006280 CONDUIT    329.77     0  01:41      2.14    0.14    0.25
  WS02006287WS02006284 CONDUIT    329.73     0  01:41      1.90    0.15    0.27
  WSF200WS02003060     CONDUIT    423.10     0  02:18      1.60    0.09    0.28
  YS02001580YS02001583 CONDUIT      0.00     0  00:00      0.00    0.00    0.00
  YS02001583YS02001586 CONDUIT      0.00     0  00:00      0.00    0.00    0.07
  YS02001586YS02001590 CONDUIT     34.36     0  01:50      0.80    0.06    0.21
  YS02001590YS02001593 CONDUIT     34.36     0  01:51      0.57    0.22    0.26
  YS02001593YS02001596 CONDUIT     34.36     0  01:51      1.20    0.05    0.16
  YS02001596YS02001600 CONDUIT     34.36     0  01:51      1.03    0.07    0.18
  YS02001600YS02001601 CONDUIT     34.44     0  01:52      0.24    0.06    0.51
  YS02001601YS02001602 CONDUIT     95.40     0  01:40      0.45    0.34    0.70
  YS02001602YS02001605 CONDUIT     94.99     0  01:42      0.52    2.01    0.63
  YS02001605YS02001607 CONDUIT     94.50     0  01:43      0.57    0.52    0.63
  YS02001607YS02001610 CONDUIT     94.04     0  01:43      0.39    0.09    0.42
  YS02001610YS02001613 CONDUIT     93.84     0  01:44      0.30    0.11    0.42
  YS02001613YS02001616 CONDUIT     93.57     0  01:46      0.37    0.08    0.36
  YS02001616YS02001619 CONDUIT     93.45     0  01:46      0.48    0.16    0.30
  YS02001619YS02001622 CONDUIT    146.30     0  01:49      0.91    0.22    0.27
  YS02001622YS02001625 CONDUIT    146.29     0  01:48      0.48    0.08    0.41
  YS02001625YS02001629 CONDUIT    146.20     0  01:51      0.55    0.07    0.37
  YS02001629YS02163301 CONDUIT    146.18     0  01:51      0.44    0.18    0.45
  YS02001633YS02163601 CONDUIT    188.17     0  01:51      0.44    0.20    0.53
  YS02001641YS02001644 CONDUIT    188.37     0  01:53      0.46    0.61    0.52
  YS02001644YS02001647 CONDUIT    222.52     0  01:52      0.83    0.13    0.38
  YS02001647YS02001649 CONDUIT    222.53     0  01:52      1.45    0.12    0.25
  YS02001649YS02001757 CONDUIT    251.62     0  01:51      1.53    0.15    0.29
  YS02001652YS02001649 CONDUIT     33.94     0  01:37      0.79    0.02    0.17
  YS02001655YS02001652 CONDUIT     33.94     0  01:37      0.98    0.02    0.09
  YS02001658YS02001655 CONDUIT     33.80     0  01:36      1.02    0.01    0.09
  YS02001661YS02001658 CONDUIT     33.80     0  01:36      1.10    0.01    0.08
  YS02001664YS02001661 CONDUIT     33.81     0  01:36      0.70    0.01    0.11
  YS02001745YS02001748 CONDUIT     22.97     0  01:36      1.02    0.01    0.07
  YS02001748YS02001751 CONDUIT     23.02     0  01:36      0.86    0.01    0.07
  YS02001751YS02001754 CONDUIT     23.02     0  01:36      0.87    0.01    0.07
  YS02001754YS02001757 CONDUIT     23.28     0  01:36      0.48    0.01    0.18
  YS02001757CaochengTiaoxuchi CONDUIT    344.55     0  01:49      0.90    0.15    0.68
  YS02001759YS02001757 CONDUIT     78.32     0  01:38      0.82    0.06    0.30
  YS02001762YS02001759 CONDUIT     47.71     0  01:42      0.58    0.05    0.23
  YS02001765YS02001762 CONDUIT     47.76     0  01:41      0.63    0.04    0.19
  YS02001767YS02001765 CONDUIT     47.78     0  01:41      0.62    0.06    0.15
  YS02001770YS02001767 CONDUIT     47.31     0  01:40      0.48    0.19    0.18
  YS02001774YS02001770 CONDUIT      8.47     0  01:16      0.24    0.01    0.23
  YS02001779YS02001774 CONDUIT      0.78     0  01:32      0.01    0.00    0.14
  YS02001783YS02001784 CONDUIT    131.89     0  01:50      0.93    0.18    0.32
  YS02001784YS02001785 CONDUIT    132.78     0  01:50      0.96    0.31    0.32
  YS02001786YS02001788 CONDUIT    132.77     0  01:51      1.33    0.26    0.25
  YS02001788YS02001790 CONDUIT    132.80     0  01:51      1.48    0.10    0.23
  YS02001790YS02001791 CONDUIT    132.91     0  01:51      1.72    0.14    0.22
  YS02001791YS02001793 CONDUIT    138.36     0  01:59      3.37    0.06    0.19
  YS02001793JiankangQianchi CONDUIT    345.18     0  02:21      0.78    0.03    0.60
  YS02001882YS02001884 CONDUIT      4.69     0  01:32      0.13    0.01    0.30
  YS02001884YS02001887 CONDUIT     11.76     0  01:32      0.09    0.02    0.39
  YS02001887YS02001890 CONDUIT     34.24     0  01:43      0.11    0.06    0.45
  YS02001890YS02001895 CONDUIT     32.70     0  01:46      0.14    0.02    0.37
  YS02001895YS02001898 CONDUIT     32.28     0  01:46      0.37    0.06    0.24
  YS02001898YS02001901 CONDUIT     33.07     0  01:50      0.18    0.02    0.32
  YS02001901YS02001904 CONDUIT     33.06     0  01:47      0.34    0.05    0.37
  YS02001904YS02001907 CONDUIT     34.54     0  01:47      0.11    0.01    0.53
  YS02001907YS02006553 CONDUIT     91.83     0  01:52      0.13    0.11    0.77
  YS02001910YS02001907 CONDUIT     63.94     0  01:49      0.49    0.04    0.59
  YS02001915YS02001910 CONDUIT     64.32     0  01:46      0.57    0.03    0.38
  YS02001918YS02001915 CONDUIT     23.00     0  01:53      0.44    0.01    0.18
  YS02001920YS02001918 CONDUIT     23.00     0  01:52      0.39    0.02    0.13
  YS02001923YS02001920 CONDUIT     20.14     0  01:52      0.37    0.01    0.12
  YS02001926YS02001923 CONDUIT     20.10     0  01:51      0.42    0.03    0.11
  YS02001929YS02001926 CONDUIT     20.06     0  01:51      0.44    0.01    0.11
  YS02006553YS02006556 CONDUIT     91.96     0  01:56      0.18    0.08    0.67
  YS02006556YS02006558 CONDUIT     91.87     0  01:56      0.16    0.07    0.70
  YS02006558YS02006561 CONDUIT    132.02     0  01:49      1.82    0.29    0.30
  YS02006561YS02001783 CONDUIT    131.97     0  01:50      1.42    0.07    0.24
  YS02163301YS02001633 CONDUIT    146.19     0  01:53      0.38    0.14    0.49
  YS02163601YS02164001 CONDUIT    188.28     0  01:52      0.44    0.17    0.54
  YS02164001YS02001641 CONDUIT    188.31     0  01:52      0.47    0.26    0.51
  YSB1154YSB6556       CONDUIT     20.89     0  01:39      0.13    0.04    0.55
  YSB1171HS02004479    CONDUIT     36.53     0  01:40      0.54    0.02    0.52
  YSB1174YSB1171       CONDUIT     16.63     0  01:36      0.07    0.03    0.66
  YSB6556YSB1171       CONDUIT     21.15     0  01:41      0.08    0.02    0.65
  CC-R1                PUMP       683.00     0  00:00              1.00
  CC-R2                PUMP       683.00     0  00:00              1.00
  CC-S1                PUMP       200.00     0  00:00              1.00
  CC-S2                PUMP       200.00     0  00:00              1.00
  JK-R1                PUMP      1000.00     0  00:00              1.00
  JK-R2                PUMP      1000.00     0  00:00              1.00
  JK-S                 PUMP       300.00     0  00:00              1.00
  XR-1                 PUMP        95.00     0  00:00              1.00
  XR-2                 PUMP        95.00     0  00:00              1.00
  XR-3                 PUMP        95.00     0  00:00              1.00
  XR-4                 PUMP        95.00     0  00:00              1.00
  
  
  ***************************
  Flow Classification Summary
  ***************************
  
  -------------------------------------------------------------------------------------
                      Adjusted    ---------- Fraction of Time in Flow Class ---------- 
                       /Actual         Up    Down  Sub   Sup   Up    Down  Norm  Inlet 
  Conduit               Length    Dry  Dry   Dry   Crit  Crit  Crit  Crit  Ltd   Ctrl  
  -------------------------------------------------------------------------------------
  1                       1.00   0.00  0.00  0.00  0.00  1.00  0.00  0.00  0.28  0.00
  HS02004478WS02006287    1.00   0.13  0.00  0.00  0.62  0.25  0.00  0.00  0.72  0.00
  HS02004479HS02004480    1.00   0.03  0.00  0.00  0.97  0.00  0.00  0.00  0.11  0.00
  HS02004480HS02004478    1.00   0.11  0.00  0.00  0.49  0.00  0.00  0.40  0.00  0.00
  HS02004770HS02004777    1.00   0.00  0.11  0.00  0.89  0.00  0.00  0.00  0.02  0.00
  HS02004777HS02004785    1.00   0.00  0.00  0.00  1.00  0.00  0.00  0.00  0.11  0.00
  HS02004785HS02004788    1.00   0.00  0.00  0.00  1.00  0.00  0.00  0.00  0.00  0.00
  HS02004788HS02004792    1.00   0.00  0.00  0.00  0.99  0.01  0.00  0.00  0.98  0.00
  HS02004792HS02004799    1.00   0.00  0.00  0.00  0.99  0.01  0.00  0.00  0.98  0.00
  HS02004799HS02004480    1.00   0.00  0.03  0.00  0.87  0.00  0.10  0.00  0.00  0.00
  HS02004802HS02004478    1.00   0.11  0.00  0.00  0.88  0.00  0.00  0.00  0.02  0.00
  HS02004807HS02004802    1.00   0.11  0.00  0.00  0.88  0.00  0.00  0.02  0.00  0.00
  HS02004817HS02004807    1.00   0.00  0.11  0.00  0.89  0.00  0.00  0.00  0.01  0.00
  HS02004817HS02004824    1.00   0.00  0.00  0.00  1.00  0.00  0.00  0.00  1.00  0.00
  HS02004824HS02004830    1.00   0.00  0.00  0.00  1.00  0.00  0.00  0.00  0.00  0.00
  HS02004830HS02004837    1.00   0.00  0.00  0.00  1.00  0.00  0.00  0.00  0.99  0.00
  HS02004837HS02004842    1.00   0.00  0.00  0.00  1.00  0.00  0.00  0.00  0.11  0.00
  HS02004842HS02004848    1.00   0.00  0.11  0.00  0.89  0.00  0.00  0.00  0.61  0.00
  HS02004848HS02004852    1.00   0.11  0.00  0.00  0.89  0.00  0.00  0.00  0.79  0.00
  HS02004852HS02004856    1.00   0.11  0.01  0.00  0.88  0.00  0.00  0.00  0.87  0.00
  HS02004856HS02004862    1.00   0.00  0.14  0.00  0.86  0.00  0.00  0.00  0.84  0.00
  HS02004862HS02004870    1.00   0.00  0.00  0.00  1.00  0.00  0.00  0.00  0.03  0.00
  HS02004870HS02004876    1.00   0.00  0.00  0.00  0.99  0.01  0.00  0.00  0.95  0.00
  HS02004876HS02004881    1.00   0.02  0.00  0.00  0.93  0.05  0.00  0.00  0.00  0.00
  HS02004881HS02006253    1.00   0.03  0.01  0.00  0.07  0.02  0.00  0.87  0.03  0.00
  HS02004901HS02004770    1.00   0.11  0.00  0.00  0.89  0.00  0.00  0.00  0.00  0.00
  WS02001211WS02001212    1.00   0.00  0.02  0.00  0.98  0.00  0.00  0.00  0.00  0.00
  WS02001212WS02001213    1.00   0.02  0.00  0.00  0.20  0.00  0.78  0.00  0.00  0.00
  WS02001213WS02003059    1.00   0.00  0.00  0.00  0.99  0.00  0.00  0.00  0.00  0.00
  WS02003059WS02003060    1.00   0.00  0.00  0.00  1.00  0.00  0.00  0.00  0.03  0.00
  WS02003060WS02003069    1.00   0.00  0.00  0.00  0.99  0.01  0.00  0.00  0.61  0.00
  WS02003066WSF200        1.00   0.11  0.00  0.00  0.00  0.89  0.00  0.00  0.87  0.00
  WS02003067WS02003066    1.00   0.09  0.02  0.00  0.90  0.00  0.00  0.00  0.00  0.00
  WS02003069WS02003072    1.00   0.00  0.00  0.00  1.00  0.00  0.00  0.00  0.76  0.00
  WS02003072WS02003073    1.00   0.00  0.00  0.00  0.00  0.00  0.00  1.00  0.00  0.00
  WS02004138WS02004139    1.00   0.00  0.00  0.00  0.98  0.01  0.00  0.01  0.98  0.00
  WS02004139WS02001211    1.00   0.00  0.00  0.00  0.99  0.00  0.00  0.00  0.00  0.00
  WS02004401WS02004402    1.00   0.02  0.00  0.00  0.98  0.00  0.00  0.00  0.00  0.00
  WS02004402WS02004403    1.00   0.02  0.00  0.00  0.98  0.00  0.00  0.00  0.00  0.00
  WS02004403WS02004404    1.00   0.00  0.02  0.00  0.98  0.00  0.00  0.00  0.00  0.00
  WS02004404WS02004405    1.00   0.00  0.00  0.00  1.00  0.00  0.00  0.00  0.00  0.00
  WS02004405WS02004406    1.00   0.00  0.00  0.00  1.00  0.00  0.00  0.00  0.00  0.00
  WS02004406WS02004407    1.00   0.00  0.04  0.00  0.96  0.00  0.00  0.00  0.00  0.00
  WS02004407WS02004409    1.00   0.04  0.00  0.00  0.95  0.01  0.00  0.00  0.94  0.00
  WS02004409WS02004410    1.00   0.04  0.00  0.00  0.96  0.00  0.00  0.00  0.02  0.00
  WS02004410WS02004411    1.00   0.04  0.00  0.00  0.96  0.00  0.00  0.00  0.00  0.00
  WS02004411WS02004412    1.00   0.05  0.00  0.00  0.95  0.00  0.00  0.00  0.00  0.00
  WS02004412WS02004413    1.00   0.05  0.00  0.00  0.95  0.00  0.00  0.00  0.01  0.00
  WS02004413WS02003067    1.00   0.05  0.04  0.00  0.00  0.00  0.91  0.00  0.00  0.00
  WS02006109WS02006110    1.00   0.00  0.01  0.00  0.98  0.00  0.01  0.00  0.00  0.00
  WS02006110WS02006113    1.00   0.01  0.01  0.00  0.98  0.00  0.00  0.00  0.00  0.00
  WS02006111WS02006112    1.00   0.02  0.00  0.00  0.98  0.00  0.00  0.00  0.98  0.00
  WS02006112WS02006115    1.00   0.02  0.00  0.00  0.98  0.00  0.00  0.00  0.00  0.00
  WS02006113WS02006111    1.00   0.02  0.00  0.00  0.00  0.98  0.00  0.00  0.12  0.00
  WS02006115WS02006116    1.00   0.02  0.00  0.00  0.97  0.00  0.00  0.01  0.00  0.00
  WS02006116WS02004401    1.00   0.02  0.00  0.00  0.98  0.00  0.00  0.00  0.00  0.00
  WS02006228WS02006109    1.00   0.00  0.00  0.00  1.00  0.00  0.00  0.00  0.01  0.00
  WS02006229WS02006228    1.00   0.00  0.00  0.00  0.99  0.00  0.00  0.01  0.00  0.00
  WS02006230WS02006229    1.00   0.00  0.00  0.00  0.99  0.00  0.00  0.01  0.02  0.00
  WS02006231WS02006230    1.00   0.00  0.00  0.00  0.30  0.00  0.69  0.00  0.00  0.00
  WS02006232WS02006231    1.00   0.00  0.00  0.00  0.99  0.00  0.00  0.00  0.00  0.00
  WS02006234WS02006232    1.00   0.00  0.00  0.00  1.00  0.00  0.00  0.00  0.00  0.00
  WS02006235WS02006234    1.00   0.00  0.00  0.00  0.66  0.00  0.34  0.00  0.00  0.00
  WS02006238WS02006235    1.00   0.00  0.00  0.00  1.00  0.00  0.00  0.00  0.00  0.00
  WS02006239WS02006238    1.00   0.00  0.00  0.00  1.00  0.00  0.00  0.00  0.02  0.00
  WS02006240WS02006239    1.00   0.00  0.00  0.00  0.47  0.00  0.00  0.53  0.01  0.00
  WS02006242WS02006240    1.00   0.00  0.00  0.00  1.00  0.00  0.00  0.00  0.00  0.00
  WS02006243WS02006242    1.00   0.00  0.00  0.00  1.00  0.00  0.00  0.00  0.86  0.00
  WS02006245WS02006243    1.00   0.00  0.00  0.00  0.95  0.00  0.00  0.05  0.01  0.00
  WS02006247WS02006245    1.00   0.00  0.00  0.00  0.99  0.00  0.00  0.01  0.00  0.00
  WS02006248WS02006247    1.00   0.00  0.00  0.00  1.00  0.00  0.00  0.00  0.85  0.00
  WS02006249WS02006248    1.00   0.00  0.00  0.00  0.25  0.00  0.75  0.00  0.00  0.00
  WS02006251WS02006249    1.00   0.00  0.00  0.00  1.00  0.00  0.00  0.00  0.82  0.00
  WS02006252WS02006251    1.00   0.00  0.02  0.00  0.00  0.00  0.98  0.00  0.00  0.00
  WS02006253WS02006251    1.00   0.00  0.00  0.00  1.00  0.00  0.00  0.00  0.00  0.00
  WS02006256WS02006235    1.00   0.00  0.00  0.00  1.00  0.00  0.00  0.00  0.00  0.00
  WS02006280WS02006229    1.00   0.12  0.00  0.00  0.00  0.00  0.00  0.88  0.00  0.00
  WS02006284WS02006280    1.00   0.12  0.00  0.00  0.00  0.00  0.00  0.88  0.00  0.00
  WS02006287WS02006284    1.00   0.09  0.05  0.00  0.47  0.40  0.00  0.00  0.75  0.00
  WSF200WS02003060        1.00   0.00  0.11  0.00  0.74  0.15  0.00  0.00  0.75  0.00
  YS02001580YS02001583    1.00   1.00  0.00  0.00  0.00  0.00  0.00  0.00  0.00  0.00
  YS02001583YS02001586    1.00   0.46  0.54  0.00  0.00  0.00  0.00  0.00  0.00  0.00
  YS02001586YS02001590    1.00   0.11  0.00  0.00  0.40  0.04  0.00  0.45  0.34  0.00
  YS02001590YS02001593    1.00   0.11  0.01  0.00  0.00  0.00  0.89  0.00  0.00  0.00
  YS02001593YS02001596    1.00   0.11  0.00  0.00  0.00  0.00  0.00  0.89  0.00  0.00
  YS02001596YS02001600    1.00   0.11  0.00  0.00  0.00  0.00  0.00  0.89  0.00  0.00
  YS02001600YS02001601    1.00   0.11  0.01  0.00  0.88  0.00  0.00  0.00  0.73  0.00
  YS02001601YS02001602    1.00   0.11  0.01  0.00  0.89  0.00  0.00  0.00  0.00  0.00
  YS02001602YS02001605    1.00   0.11  0.00  0.00  0.89  0.00  0.00  0.00  0.00  0.00
  YS02001605YS02001607    1.00   0.11  0.00  0.00  0.89  0.00  0.00  0.00  0.00  0.00
  YS02001607YS02001610    1.00   0.11  0.00  0.00  0.88  0.00  0.00  0.00  0.01  0.00
  YS02001610YS02001613    1.00   0.11  0.00  0.00  0.89  0.00  0.00  0.00  0.00  0.00
  YS02001613YS02001616    1.00   0.11  0.00  0.00  0.89  0.00  0.00  0.00  0.00  0.00
  YS02001616YS02001619    1.00   0.11  0.00  0.00  0.89  0.00  0.00  0.00  0.00  0.00
  YS02001619YS02001622    1.00   0.11  0.00  0.00  0.89  0.00  0.00  0.00  0.40  0.00
  YS02001622YS02001625    1.00   0.11  0.00  0.00  0.89  0.00  0.00  0.00  0.04  0.00
  YS02001625YS02001629    1.00   0.11  0.04  0.00  0.00  0.00  0.85  0.00  0.00  0.00
  YS02001629YS02163301    1.00   0.13  0.01  0.00  0.86  0.00  0.00  0.00  0.00  0.00
  YS02001633YS02163601    1.00   0.00  0.00  0.00  0.99  0.00  0.00  0.00  0.14  0.00
  YS02001641YS02001644    1.00   0.00  0.00  0.00  1.00  0.00  0.00  0.00  0.00  0.00
  YS02001644YS02001647    1.00   0.00  0.14  0.00  0.86  0.00  0.00  0.00  0.00  0.00
  YS02001647YS02001649    1.00   0.00  0.14  0.00  0.54  0.32  0.00  0.00  0.66  0.00
  YS02001649YS02001757    1.00   0.00  0.00  0.00  0.78  0.22  0.00  0.00  0.33  0.00
  YS02001652YS02001649    1.00   0.00  0.00  0.00  0.97  0.03  0.00  0.00  0.54  0.00
  YS02001655YS02001652    1.00   0.00  0.00  0.00  0.00  0.00  0.00  1.00  0.00  0.00
  YS02001658YS02001655    1.00   0.00  0.12  0.00  0.49  0.39  0.00  0.00  0.84  0.00
  YS02001661YS02001658    1.00   0.12  0.00  0.00  0.40  0.48  0.00  0.00  0.83  0.00
  YS02001664YS02001661    1.00   0.11  0.00  0.00  0.89  0.00  0.00  0.00  0.87  0.00
  YS02001745YS02001748    1.00   0.00  0.00  0.00  0.00  0.00  0.00  1.00  0.00  0.00
  YS02001748YS02001751    1.00   0.00  0.00  0.00  0.63  0.37  0.00  0.00  0.75  0.00
  YS02001751YS02001754    1.00   0.00  0.00  0.00  0.00  0.00  0.00  1.00  0.00  0.00
  YS02001754YS02001757    1.00   0.00  0.00  0.00  1.00  0.00  0.00  0.00  1.00  0.00
  YS02001757CaochengTiaoxuchi    1.00   0.00  0.00  0.00  1.00  0.00  0.00  0.00  0.32  0.00
  YS02001759YS02001757    1.00   0.00  0.00  0.00  0.99  0.01  0.00  0.00  0.12  0.00
  YS02001762YS02001759    1.00   0.00  0.00  0.00  1.00  0.00  0.00  0.00  0.04  0.00
  YS02001765YS02001762    1.00   0.00  0.00  0.00  1.00  0.00  0.00  0.00  0.21  0.00
  YS02001767YS02001765    1.00   0.00  0.00  0.00  1.00  0.00  0.00  0.00  0.00  0.00
  YS02001770YS02001767    1.00   0.00  0.00  0.00  1.00  0.00  0.00  0.00  0.00  0.00
  YS02001774YS02001770    1.00   0.00  0.11  0.00  0.89  0.00  0.00  0.00  0.03  0.00
  YS02001779YS02001774    1.00   0.00  0.00  0.00  1.00  0.00  0.00  0.00  0.95  0.00
  YS02001783YS02001784    1.00   0.00  0.15  0.00  0.85  0.00  0.00  0.00  0.62  0.00
  YS02001784YS02001785    1.00   0.00  0.00  0.00  1.00  0.00  0.00  0.00  0.17  0.00
  YS02001786YS02001788    1.00   0.00  0.00  0.00  0.68  0.32  0.00  0.00  0.00  0.00
  YS02001788YS02001790    1.00   0.00  0.00  0.00  0.16  0.84  0.00  0.00  0.99  0.00
  YS02001790YS02001791    1.00   0.00  0.00  0.00  0.01  0.99  0.00  0.00  0.13  0.00
  YS02001791YS02001793    1.00   0.00  0.00  0.00  0.00  1.00  0.00  0.00  0.00  0.00
  YS02001793JiankangQianchi    1.00   0.00  0.00  0.00  1.00  0.00  0.00  0.00  0.99  0.00
  YS02001882YS02001884    1.00   0.13  0.01  0.00  0.87  0.00  0.00  0.00  0.00  0.00
  YS02001884YS02001887    1.00   0.05  0.05  0.00  0.90  0.00  0.00  0.00  0.00  0.00
  YS02001887YS02001890    1.00   0.00  0.00  0.00  0.97  0.00  0.02  0.00  0.00  0.00
  YS02001890YS02001895    1.00   0.00  0.13  0.00  0.86  0.00  0.00  0.00  0.00  0.00
  YS02001895YS02001898    1.00   0.14  0.00  0.00  0.84  0.00  0.02  0.00  0.00  0.00
  YS02001898YS02001901    1.00   0.14  0.00  0.00  0.86  0.00  0.00  0.00  0.01  0.00
  YS02001901YS02001904    1.00   0.14  0.00  0.00  0.86  0.00  0.00  0.00  0.00  0.00
  YS02001904YS02001907    1.00   0.00  0.14  0.00  0.86  0.00  0.00  0.00  0.00  0.00
  YS02001907YS02006553    1.00   0.00  0.02  0.00  0.98  0.00  0.00  0.00  0.00  0.00
  YS02001910YS02001907    1.00   0.00  0.00  0.00  0.97  0.00  0.00  0.02  0.12  0.00
  YS02001915YS02001910    1.00   0.00  0.00  0.00  0.97  0.03  0.00  0.00  0.15  0.00
  YS02001918YS02001915    1.00   0.00  0.00  0.00  0.98  0.02  0.00  0.00  0.87  0.00
  YS02001920YS02001918    1.00   0.00  0.00  0.00  1.00  0.00  0.00  0.00  0.00  0.00
  YS02001923YS02001920    1.00   0.00  0.00  0.00  1.00  0.00  0.00  0.00  1.00  0.00
  YS02001926YS02001923    1.00   0.00  0.06  0.00  0.00  0.00  0.94  0.00  0.00  0.00
  YS02001929YS02001926    1.00   0.00  0.11  0.00  0.89  0.00  0.00  0.00  0.87  0.00
  YS02006553YS02006556    1.00   0.01  0.00  0.00  0.99  0.00  0.00  0.00  0.03  0.00
  YS02006556YS02006558    1.00   0.00  0.00  0.00  1.00  0.00  0.00  0.00  0.00  0.00
  YS02006558YS02006561    1.00   0.15  0.00  0.00  0.00  0.85  0.00  0.00  0.24  0.00
  YS02006561YS02001783    1.00   0.15  0.00  0.00  0.00  0.85  0.00  0.00  0.82  0.00
  YS02163301YS02001633    1.00   0.00  0.13  0.00  0.87  0.00  0.00  0.00  0.00  0.00
  YS02163601YS02164001    1.00   0.00  0.07  0.00  0.93  0.00  0.00  0.00  0.00  0.00
  YS02164001YS02001641    1.00   0.01  0.06  0.00  0.93  0.00  0.00  0.00  0.05  0.00
  YSB1154YSB6556          1.00   0.11  0.00  0.00  0.89  0.00  0.00  0.00  0.02  0.00
  YSB1171HS02004479       1.00   0.03  0.00  0.00  0.95  0.00  0.00  0.01  0.10  0.00
  YSB1174YSB1171          1.00   0.04  0.04  0.00  0.92  0.00  0.00  0.00  0.00  0.00
  YSB6556YSB1171          1.00   0.03  0.07  0.00  0.89  0.00  0.00  0.00  0.00  0.00
  
  
  *************************
  Conduit Surcharge Summary
  *************************
  
  ----------------------------------------------------------------------------
                                                           Hours        Hours 
                         --------- Hours Full --------   Above Full   Capacity
  Conduit                Both Ends  Upstream  Dnstream   Normal Flow   Limited
  ----------------------------------------------------------------------------
  HS02004480HS02004478        0.01      0.01      0.01      0.17         0.01
  WS02003072WS02003073        0.01      0.01      0.01      0.99         0.01
  WS02004404WS02004405        0.01      0.01      0.01      2.32         0.01
  WS02006109WS02006110        0.01      0.01      0.56      0.01         0.01
  WS02006110WS02006113        0.01      0.01      0.43      0.01         0.01
  WS02006111WS02006112        0.01      0.01      0.84      0.01         0.01
  WS02006228WS02006109        0.16      0.56      0.16      1.14         0.16
  WS02006229WS02006228        0.15      0.29      0.15      0.78         0.15
  WS02006230WS02006229        0.67      0.68      0.67      2.27         0.67
  WS02006231WS02006230        0.01      0.01      0.01      1.34         0.01
  WS02006235WS02006234        0.01      0.01      0.01      0.71         0.01
  WS02006239WS02006238        0.01      0.01      0.01      0.01         0.01
  WS02006240WS02006239        0.01      0.01      0.01      0.01         0.01
  WS02006242WS02006240        0.01      0.01      0.01      0.05         0.01
  WS02006245WS02006243        0.01      0.01      0.01      0.04         0.01
  WS02006247WS02006245        0.01      0.01      0.01      0.33         0.01
  WS02006249WS02006248        0.01      0.01      0.01      0.26         0.01
  WS02006251WS02006249        0.01      0.01      0.01      0.05         0.01
  WS02006252WS02006251        0.08      0.08      0.08      0.08         0.01
  WS02006256WS02006235        1.21      1.24      7.97      0.21         0.01
  YS02001602YS02001605        0.01      0.01      0.01      1.29         0.01
  YS02001757CaochengTiaoxuchi        0.01      0.01      5.30      0.01         0.01
  YS02001793JiankangQianchi        0.01      0.01      7.70      0.01         0.01
  
  
  ***************
  Pumping Summary
  ***************
  
  ---------------------------------------------------------------------------------------------------------
                                                  Min       Avg       Max     Total     Power    % Time Off
                        Percent   Number of      Flow      Flow      Flow    Volume     Usage    Pump Curve
  Pump                 Utilized   Start-Ups       LPS       LPS       LPS  10^6 ltr     Kw-hr    Low   High
  ---------------------------------------------------------------------------------------------------------
  CC-R1                    1.04           1      0.00    683.00    683.00     0.205      3.46    0.0  100.0
  CC-R2                    1.04           1      0.00    683.00    683.00     0.205      3.46    0.0  100.0
  CC-S1                   95.51           4      0.00     16.20    200.00     0.215      1.33    0.0    0.0
  CC-S2                   90.63           5      0.00     11.65    200.00     0.171      1.03    0.0    0.0
  JK-R1                    1.34           4      0.00   1000.00   1000.00     0.386      3.90    0.0    0.0
  JK-R2                    0.16           1      0.00   1000.00   1000.00     0.047      0.36    0.0    0.0
  JK-S                    15.04           6      0.00     30.26    300.00     0.230      3.23    0.0    0.0
  XR-1                    97.91           2      0.00     95.00     95.00     2.679      9.63    0.0    0.0
  XR-2                    93.95           2      0.00     95.00     95.00     2.570      8.79    0.0    0.0
  XR-3                     0.00           1      0.00     95.00     95.00     0.000      0.00    0.0    0.0
  XR-4                     0.00           1      0.00     95.00     95.00     0.000      0.00    0.0    0.0
  

  Analysis begun on:  Sun Jun 25 21:05:39 2023
  Analysis ended on:  Sun Jun 25 21:05:44 2023
  Total elapsed time: 00:00:05