
  OWA STORM WATER MANAGEMENT MODEL - VERSION v5.1.14 (OWA 2022-07-31)
  --------------------------------------------------------------

  WARNING 04: minimum elevation drop used for Conduit WS02004404WS02004405
  WARNING 03: negative offset ignored for Link YS02001904YS02001907
  
  *********************************************************
  NOTE: The summary statistics displayed in this report are
  based on results found at every computational time step,  
  not just on results from each reporting time step.
  *********************************************************
  
  ****************
  Analysis Options
  ****************
  Flow Units ............... LPS
  Process Models:
    Rainfall/Runoff ........ YES
    RDII ................... NO
    Snowmelt ............... NO
    Groundwater ............ NO
    Flow Routing ........... YES
    Ponding Allowed ........ NO
    Water Quality .......... NO
  Infiltration Method ...... HORTON
  Flow Routing Method ...... DYNWAVE
  Surcharge Method ......... EXTRAN
  Starting Date ............ 08/28/2015 08:00:00
  Ending Date .............. 08/28/2015 16:00:00
  Antecedent Dry Days ...... 8.0
  Report Time Step ......... 00:01:00
  Wet Time Step ............ 00:01:00
  Dry Time Step ............ 00:01:00
  Routing Time Step ........ 30.00 sec
  Variable Time Step ....... YES
  Maximum Trials ........... 8
  Number of Threads ........ 4
  Head Tolerance ........... 0.001500 m
  
  
  **************************        Volume         Depth
  Runoff Quantity Continuity     hectare-m            mm
  **************************     ---------       -------
  Initial LID Storage ......         0.072         1.184
  Total Precipitation ......         8.624       142.362
  Evaporation Loss .........         0.000         0.000
  Infiltration Loss ........         0.217         3.585
  Surface Runoff ...........         7.067       116.658
  Final Storage ............         1.413        23.330
  Continuity Error (%) .....        -0.019
  
  
  **************************        Volume        Volume
  Flow Routing Continuity        hectare-m      10^6 ltr
  **************************     ---------     ---------
  Dry Weather Inflow .......         0.630         6.296
  Wet Weather Inflow .......         7.067        70.668
  Groundwater Inflow .......         0.000         0.000
  RDII Inflow ..............         0.000         0.000
  External Inflow ..........         0.105         1.045
  External Outflow .........         1.951        19.506
  Flooding Loss ............         5.535        55.352
  Evaporation Loss .........         0.000         0.000
  Exfiltration Loss ........         0.000         0.000
  Initial Stored Volume ....         0.303         3.031
  Final Stored Volume ......         0.624         6.242
  Continuity Error (%) .....        -0.074
  
  
  *************************
  Highest Continuity Errors
  *************************
  Node YS02001884 (5.11%)
  Node YS02001583 (-3.72%)
  
  
  ***************************
  Time-Step Critical Elements
  ***************************
  Link WS02006252WS02006251 (83.81%)
  Link WS02006280WS02006229 (5.07%)
  Link WS02003066WSF200 (4.39%)
  Link WS02006238WS02006235 (1.15%)
  
  
  ********************************
  Highest Flow Instability Indexes
  ********************************
  Link WS02006113WS02006111 (52)
  Link WS02006111WS02006112 (33)
  Link WS02006256WS02006235 (15)
  Link WS02006238WS02006235 (12)
  Link WS02004404WS02004405 (11)
  
  
  *************************
  Routing Time Step Summary
  *************************
  Minimum Time Step           :     0.03 sec
  Average Time Step           :     0.94 sec
  Maximum Time Step           :     6.46 sec
  Percent in Steady State     :    -0.00
  Average Iterations per Step :     2.68
  Percent Not Converging      :     6.26
  
  
  ***************************
  Subcatchment Runoff Summary
  ***************************
  
  ------------------------------------------------------------------------------------------------------------------------------
                            Total      Total      Total      Total     Imperv       Perv      Total       Total     Peak  Runoff
                           Precip      Runon       Evap      Infil     Runoff     Runoff     Runoff      Runoff   Runoff   Coeff
  Subcatchment                 mm         mm         mm         mm         mm         mm         mm    10^6 ltr      LPS
  ------------------------------------------------------------------------------------------------------------------------------
  sub0                     141.72       0.00       0.00       1.05     130.58       8.88     139.46        0.11    84.56   0.984
  sub1                     141.72       0.00       0.00       1.60     111.95      12.37     126.02        0.84   545.92   0.889
  sub10                    141.72       0.00       0.00       1.02     104.90       8.20     116.16        1.28   848.01   0.820
  sub11                    141.72       0.00       0.00       0.93      97.48       7.63     109.12        1.27   870.50   0.770
  sub12                    141.72       0.00       0.00       1.63      99.09      13.32     115.50        1.01   730.05   0.815
  sub14                    141.72       0.00       0.00       1.01      92.32       8.21     105.06        1.00   674.26   0.741
  sub15                    141.72       0.00       0.00       4.61      83.01      31.31     116.85        2.01  1260.43   0.825
  sub16                    141.72       0.00       0.00       4.89      80.95      35.36     118.59        1.24   836.98   0.837
  sub17                    141.72       0.00       0.00       5.24      89.35      37.21     127.61        1.09   730.97   0.900
  sub2                     141.72       0.00       0.00       7.31      81.86      41.25     124.31        1.16   631.59   0.877
  sub22                    141.72       0.00       0.00       8.18      77.48      50.84     128.84        8.14  4837.78   0.909
  sub23                    141.72       0.00       0.00       6.15      79.78      41.17     122.55        5.85  3673.19   0.865
  sub3                     141.72       0.00       0.00       7.89      81.10      40.24     122.69        2.76  1390.89   0.866
  sub4                     141.72       0.00       0.00       1.75     110.41      12.05     124.34        2.59  1442.14   0.877
  sub5                     141.72       0.00       0.00       0.91     108.30       7.33     118.41        1.34   875.48   0.835
  sub60                    142.89       0.00       0.00       1.46      96.13      11.78     111.38        1.46   933.17   0.779
  sub61                    142.89       0.00       0.00       2.24      96.04      17.62     116.44        2.14  1368.07   0.815
  sub62                    142.89       0.00       0.00       0.99     102.41       8.00     113.66        3.11  1885.60   0.795
  sub63                    142.89       0.00       0.00       4.12      82.26      29.81     114.83        2.61  1593.88   0.804
  sub64                    142.89       0.00       0.00       1.98      93.69      14.72     111.78        2.69  1577.40   0.782
  sub65                    142.89       0.00       0.00       1.81     101.14      13.45     117.31        3.23  1864.96   0.821
  sub66                    142.89       0.00       0.00       4.83      79.62      28.03     110.80        5.17  2737.05   0.775
  sub67                    142.89       0.00       0.00       0.98     104.96       8.24     116.15        2.16  1426.66   0.813
  sub68                    142.89       0.00       0.00       1.72      92.71      13.52     109.86        3.02  1874.96   0.769
  sub69                    142.89       0.00       0.00       1.61      96.17      15.38     114.71        4.25  2409.70   0.803
  sub7                     141.72       0.00       0.00       1.07      98.95       8.81     111.44        0.38   262.00   0.786
  sub70                    142.89       0.00       0.00       5.43      77.10      34.35     114.21        3.30  1619.26   0.799
  sub71                    142.89       0.00       0.00       0.92      93.05       7.26     104.64        2.74  1584.02   0.732
  sub72                    142.89       0.00       0.00       0.87     100.55       6.77     110.91        1.52   852.79   0.776
  sub8                     141.72       0.00       0.00       1.05      96.16       8.55     108.76        0.69   473.40   0.767
  sub9                     141.72       0.00       0.00       1.02      93.22       8.29     105.93        0.51   345.01   0.747
  

  ***********************
  LID Performance Summary
  ***********************

  --------------------------------------------------------------------------------------------------------------------
                                         Total      Evap     Infil   Surface    Drain    Initial     Final  Continuity
                                        Inflow      Loss      Loss   Outflow   Outflow   Storage   Storage       Error
  Subcatchment      LID Control             mm        mm        mm        mm        mm        mm        mm           %
  --------------------------------------------------------------------------------------------------------------------
  sub1              GreenRoof           141.72      0.00      0.00     16.33      0.00      7.05    132.44       -0.00
  sub10             GreenRoof           141.72      0.00      0.00     16.33      0.00      7.05    132.44       -0.00
  sub11             GreenRoof           141.72      0.00      0.00     16.33      0.00      7.05    132.44       -0.00
  sub12             GreenRoof           141.72      0.00      0.00     16.33      0.00      7.05    132.44       -0.00
  sub14             GreenRoof           141.72      0.00      0.00     16.33      0.00      7.05    132.44       -0.00
  sub15             GreenRoof           141.72      0.00      0.00     16.33      0.00      7.05    132.44       -0.00
  sub16             GreenRoof           141.72      0.00      0.00     16.33      0.00      7.05    132.44       -0.00
  sub17             GreenRoof           141.72      0.00      0.00     16.33      0.00      7.05    132.44       -0.00
  sub2              GreenRoof           141.72      0.00      0.00     16.33      0.00      7.05    132.44       -0.00
  sub22             GreenRoof           141.72      0.00      0.00     16.33      0.00      7.05    132.44       -0.00
  sub23             GreenRoof           141.72      0.00      0.00     16.33      0.00      7.05    132.44       -0.00
  sub3              GreenRoof           141.72      0.00      0.00     16.33      0.00      7.05    132.44       -0.00
  sub4              GreenRoof           141.72      0.00      0.00     16.33      0.00      7.05    132.44       -0.00
  sub5              GreenRoof           141.72      0.00      0.00     16.33      0.00      7.05    132.44       -0.00
  sub60             GreenRoof           142.89      0.00      0.00     15.22      0.00      7.05    134.72       -0.00
  sub61             GreenRoof           142.89      0.00      0.00     15.22      0.00      7.05    134.72       -0.00
  sub62             GreenRoof           142.89      0.00      0.00     15.22      0.00      7.05    134.72       -0.00
  sub63             GreenRoof           142.89      0.00      0.00     15.22      0.00      7.05    134.72       -0.00
  sub64             GreenRoof           142.89      0.00      0.00     15.22      0.00      7.05    134.72       -0.00
  sub65             GreenRoof           142.89      0.00      0.00     15.22      0.00      7.05    134.72       -0.00
  sub66             GreenRoof           142.89      0.00      0.00     15.22      0.00      7.05    134.72       -0.00
  sub67             GreenRoof           142.89      0.00      0.00     15.22      0.00      7.05    134.72       -0.00
  sub68             GreenRoof           142.89      0.00      0.00     15.22      0.00      7.05    134.72       -0.00
  sub69             GreenRoof           142.89      0.00      0.00     15.22      0.00      7.05    134.72       -0.00
  sub7              GreenRoof           141.72      0.00      0.00     16.33      0.00      7.05    132.44       -0.00
  sub70             GreenRoof           142.89      0.00      0.00     15.22      0.00      7.05    134.72       -0.00
  sub71             GreenRoof           142.89      0.00      0.00     15.22      0.00      7.05    134.72       -0.00
  sub72             GreenRoof           142.89      0.00      0.00     15.22      0.00      7.05    134.72       -0.00
  sub8              GreenRoof           141.72      0.00      0.00     16.33      0.00      7.05    132.44       -0.00
  sub9              GreenRoof           141.72      0.00      0.00     16.33      0.00      7.05    132.44       -0.00
  
  ******************
  Node Depth Summary
  ******************
  
  ---------------------------------------------------------------------------------
                                 Average  Maximum  Maximum  Time of Max    Reported
                                   Depth    Depth      HGL   Occurrence   Max Depth
  Node                 Type       Meters   Meters   Meters  days hr:min      Meters
  ---------------------------------------------------------------------------------
  HS02004478           JUNCTION     0.15     1.60    10.83     0  02:04        1.60
  HS02004479           JUNCTION     0.20     1.69    10.89     0  01:47        1.67
  HS02004480           JUNCTION     0.17     1.65    10.90     0  01:47        1.65
  HS02004770           JUNCTION     0.19     1.42    11.25     0  01:43        1.42
  HS02004777           JUNCTION     0.22     1.48    11.28     0  01:43        1.48
  HS02004785           JUNCTION     0.11     1.49    11.39     0  01:43        1.40
  HS02004788           JUNCTION     0.10     1.42    11.32     0  01:43        1.42
  HS02004792           JUNCTION     0.13     1.60    11.12     0  01:46        1.60
  HS02004799           JUNCTION     0.21     1.76    10.97     0  01:47        1.76
  HS02004802           JUNCTION     0.25     1.80    10.93     0  02:04        1.80
  HS02004807           JUNCTION     0.22     1.92    11.09     0  01:54        1.92
  HS02004817           JUNCTION     0.54     2.41    11.26     0  01:57        2.41
  HS02004824           JUNCTION     0.12     2.01    11.41     0  01:55        2.01
  HS02004830           JUNCTION     0.13     2.00    11.47     0  01:59        2.00
  HS02004837           JUNCTION     0.11     1.94    11.52     0  01:59        1.94
  HS02004842           JUNCTION     0.41     2.22    11.49     0  01:55        2.22
  HS02004848           JUNCTION     0.09     1.98    11.58     0  02:01        1.98
  HS02004852           JUNCTION     0.09     2.02    11.53     0  02:01        2.02
  HS02004856           JUNCTION     0.16     2.07    11.49     0  02:01        2.07
  HS02004862           JUNCTION     0.10     2.00    11.38     0  01:55        2.00
  HS02004870           JUNCTION     0.09     2.10    11.38     0  02:00        2.10
  HS02004876           JUNCTION     0.13     2.26    11.29     0  02:00        2.26
  HS02004881           JUNCTION     0.08     2.02    11.05     0  02:01        2.02
  HS02004901           JUNCTION     0.20     1.42    11.24     0  01:43        1.42
  WS02001211           JUNCTION     0.63     0.84     5.68     0  02:04        0.84
  WS02001212           JUNCTION     0.36     0.60     5.67     0  02:06        0.60
  WS02001213           JUNCTION     0.59     0.90     5.66     0  02:05        0.90
  WS02003059           JUNCTION     0.66     0.97     5.66     0  02:05        0.97
  WS02003060           JUNCTION     0.38     0.72     5.65     0  02:06        0.72
  WS02003066           JUNCTION     0.24     0.47     6.03     0  02:04        0.47
  WS02003067           JUNCTION     0.58     0.91     6.23     0  01:58        0.91
  WS02003069           JUNCTION     0.43     0.81     5.40     0  02:06        0.81
  WS02003072           JUNCTION     0.49     0.84     5.21     0  02:06        0.84
  WS02003073           JUNCTION     0.30     0.54     4.60     0  02:06        0.54
  WS02004138           JUNCTION     0.14     0.14     7.39     0  00:31        0.14
  WS02004139           JUNCTION     0.57     0.77     5.68     0  02:04        0.77
  WS02004401           JUNCTION     0.73     2.12     8.12     0  02:00        2.12
  WS02004402           JUNCTION     0.76     2.05     8.01     0  02:00        2.05
  WS02004403           JUNCTION     0.77     1.95     7.88     0  02:03        1.95
  WS02004404           JUNCTION     0.84     1.96     7.81     0  02:04        1.96
  WS02004405           JUNCTION     0.84     1.89     7.74     0  02:01        1.89
  WS02004406           JUNCTION     0.84     1.77     7.60     0  02:04        1.76
  WS02004407           JUNCTION     0.26     1.09     7.40     0  01:58        1.08
  WS02004409           JUNCTION     0.53     1.50     7.27     0  01:59        1.50
  WS02004410           JUNCTION     0.54     1.39     7.11     0  01:58        1.38
  WS02004411           JUNCTION     0.55     1.28     6.96     0  02:04        1.28
  WS02004412           JUNCTION     0.56     1.16     6.80     0  01:58        1.15
  WS02004413           JUNCTION     0.71     1.18     6.65     0  02:02        1.18
  WS02006109           JUNCTION     0.87     2.64     9.26     0  01:43        2.64
  WS02006110           JUNCTION     0.84     2.48     9.07     0  01:59        2.48
  WS02006111           JUNCTION     0.33     2.00     8.70     0  02:05        2.00
  WS02006112           JUNCTION     0.92     2.68     8.56     0  01:58        2.68
  WS02006113           JUNCTION     0.43     2.00     8.89     0  01:58        1.99
  WS02006115           JUNCTION     0.64     2.27     8.41     0  02:04        2.27
  WS02006116           JUNCTION     0.71     2.23     8.27     0  01:58        2.23
  WS02006228           JUNCTION     0.89     3.03     9.68     0  01:59        3.03
  WS02006229           JUNCTION     0.88     3.22     9.92     0  02:11        3.22
  WS02006230           JUNCTION     0.83     2.65     9.39     0  01:38        2.65
  WS02006231           JUNCTION     0.60     2.19     9.31     0  02:41        2.19
  WS02006232           JUNCTION     0.72     2.18     9.22     0  01:38        2.18
  WS02006234           JUNCTION     0.61     1.96     9.12     0  01:35        1.96
  WS02006235           JUNCTION     0.63     1.94     9.10     0  01:32        1.93
  WS02006238           JUNCTION     0.66     1.94     9.09     0  01:32        1.93
  WS02006239           JUNCTION     0.61     1.84     9.05     0  02:50        1.84
  WS02006240           JUNCTION     0.56     1.67     8.96     0  02:50        1.67
  WS02006242           JUNCTION     0.62     1.55     8.82     0  01:32        1.55
  WS02006243           JUNCTION     0.50     1.37     8.79     0  01:55        1.37
  WS02006245           JUNCTION     0.49     1.27     8.76     0  02:16        1.27
  WS02006247           JUNCTION     0.51     1.23     8.73     0  01:55        1.23
  WS02006248           JUNCTION     0.45     1.10     8.69     0  01:30        1.10
  WS02006249           JUNCTION     0.49     1.09     8.69     0  01:30        1.09
  WS02006251           JUNCTION     0.54     2.20     9.87     0  02:01        2.20
  WS02006252           JUNCTION     0.41     1.50     9.74     0  00:00        1.50
  WS02006253           JUNCTION     0.60     3.29    10.94     0  02:01        3.29
  WS02006256           JUNCTION     0.92     2.35     9.28     0  00:00        2.35
  WS02006280           JUNCTION     0.19     1.75    10.02     0  01:54        1.74
  WS02006284           JUNCTION     0.46     1.95    10.35     0  02:04        1.95
  WS02006287           JUNCTION     0.19     1.74    10.70     0  02:04        1.74
  WSF200               JUNCTION     0.22     0.55     5.78     0  02:04        0.55
  YS02001580           JUNCTION     0.06     1.05     9.59     0  01:41        0.77
  YS02001583           JUNCTION     0.09     0.99     9.49     0  01:41        0.82
  YS02001586           JUNCTION     0.13     1.13     9.30     0  01:41        1.13
  YS02001590           JUNCTION     0.20     1.40     9.26     0  01:41        1.37
  YS02001593           JUNCTION     0.14     1.32     9.18     0  01:41        1.29
  YS02001596           JUNCTION     0.25     1.68     9.10     0  01:41        1.65
  YS02001600           JUNCTION     0.42     1.87     9.00     0  01:41        1.86
  YS02001601           JUNCTION     0.67     2.06     8.90     0  01:40        2.06
  YS02001602           JUNCTION     0.59     1.87     8.77     0  01:44        1.87
  YS02001605           JUNCTION     0.58     1.78     8.68     0  01:48        1.78
  YS02001607           JUNCTION     0.61     1.65     8.49     0  02:06        1.65
  YS02001610           JUNCTION     0.65     1.68     8.48     0  01:45        1.68
  YS02001613           JUNCTION     0.61     1.68     8.52     0  02:06        1.68
  YS02001616           JUNCTION     0.54     1.61     8.52     0  01:56        1.61
  YS02001619           JUNCTION     0.53     1.61     8.54     0  01:56        1.61
  YS02001622           JUNCTION     0.54     1.59     8.49     0  02:09        1.58
  YS02001625           JUNCTION     0.82     1.78     8.38     0  01:45        1.78
  YS02001629           JUNCTION     0.87     1.85     8.40     0  01:47        1.85
  YS02001633           JUNCTION     0.96     2.08     8.53     0  02:01        2.08
  YS02001641           JUNCTION     0.96     1.96     8.40     0  02:04        1.96
  YS02001644           JUNCTION     0.96     1.92     8.35     0  01:48        1.92
  YS02001647           JUNCTION     0.78     1.79     8.40     0  02:00        1.79
  YS02001649           JUNCTION     0.99     2.05     8.44     0  01:59        2.05
  YS02001652           JUNCTION     0.79     1.99     8.58     0  02:01        1.99
  YS02001655           JUNCTION     0.56     1.88     8.73     0  02:01        1.87
  YS02001658           JUNCTION     0.32     1.86     9.01     0  01:48        1.73
  YS02001661           JUNCTION     0.21     1.61     9.02     0  02:01        1.61
  YS02001664           JUNCTION     0.04     1.24     9.16     0  02:01        1.24
  YS02001745           JUNCTION     0.11     1.13     8.65     0  02:01        1.13
  YS02001748           JUNCTION     0.36     1.52     8.59     0  02:00        1.51
  YS02001751           JUNCTION     0.52     1.67     8.55     0  02:01        1.67
  YS02001754           JUNCTION     0.77     1.89     8.49     0  02:01        1.89
  YS02001757           JUNCTION     1.10     2.18     8.45     0  02:01        2.18
  YS02001759           JUNCTION     1.01     2.16     8.53     0  01:59        2.16
  YS02001762           JUNCTION     0.97     2.11     8.51     0  01:59        2.10
  YS02001765           JUNCTION     0.92     2.05     8.50     0  01:59        2.04
  YS02001767           JUNCTION     0.89     1.99     8.48     0  01:59        1.98
  YS02001770           JUNCTION     0.89     1.95     8.44     0  01:56        1.95
  YS02001774           JUNCTION     0.95     2.01     8.43     0  02:04        2.01
  YS02001779           JUNCTION     0.70     1.68     8.37     0  01:45        1.68
  YS02001783           JUNCTION     0.17     1.58     7.72     0  01:41        1.58
  YS02001784           JUNCTION     0.19     1.69     7.76     0  01:41        1.69
  YS02001786           JUNCTION     0.18     1.54     7.57     0  01:41        1.54
  YS02001788           JUNCTION     0.14     1.92     7.89     0  01:40        1.38
  YS02001790           JUNCTION     0.18     1.80     7.44     0  01:40        1.52
  YS02001791           JUNCTION     0.16     1.51     6.98     0  01:40        1.42
  YS02001793           JUNCTION     0.21     1.91     6.74     0  01:40        1.89
  YS02001882           JUNCTION     0.21     1.72     8.44     0  02:01        1.72
  YS02001884           JUNCTION     0.31     1.82     8.44     0  02:00        1.82
  YS02001887           JUNCTION     0.39     1.90     8.44     0  02:00        1.90
  YS02001890           JUNCTION     0.42     1.81     8.32     0  01:47        1.81
  YS02001895           JUNCTION     0.18     1.58     8.32     0  02:06        1.58
  YS02001898           JUNCTION     0.19     1.56     8.30     0  01:53        1.56
  YS02001901           JUNCTION     0.31     1.68     8.29     0  02:06        1.68
  YS02001904           JUNCTION     0.29     1.64     8.27     0  01:48        1.64
  YS02001907           JUNCTION     0.62     1.96     8.25     0  01:47        1.96
  YS02001910           JUNCTION     0.41     2.01     8.52     0  02:06        2.01
  YS02001915           JUNCTION     0.21     2.00     8.72     0  01:59        2.00
  YS02001918           JUNCTION     0.11     1.75     8.82     0  01:47        1.74
  YS02001920           JUNCTION     0.19     1.90     8.91     0  01:47        1.84
  YS02001923           JUNCTION     0.08     1.71     8.97     0  01:47        1.63
  YS02001926           JUNCTION     0.11     1.57     9.02     0  01:47        1.49
  YS02001929           JUNCTION     0.06     1.47     9.17     0  01:47        1.29
  YS02006553           JUNCTION     0.63     2.00     8.29     0  02:01        2.00
  YS02006556           JUNCTION     0.60     2.03     8.34     0  02:01        2.03
  YS02006558           JUNCTION     0.64     2.10     8.37     0  02:01        2.10
  YS02006561           JUNCTION     0.11     1.18     7.84     0  02:00        1.18
  YS02163301           JUNCTION     0.90     1.95     8.46     0  02:00        1.95
  YS02163601           JUNCTION     1.01     2.07     8.47     0  02:01        2.07
  YS02164001           JUNCTION     0.94     1.97     8.43     0  02:01        1.97
  YSB1154              JUNCTION     0.35     2.10    11.16     0  01:59        2.10
  YSB1171              JUNCTION     0.49     1.95    10.85     0  01:47        1.95
  YSB1174              JUNCTION     0.30     1.95    11.06     0  02:00        1.95
  YSB6556              JUNCTION     0.24     1.80    10.97     0  01:58        1.80
  CC-1                 OUTFALL      0.00     0.00     0.00     0  00:00        0.00
  CC-2                 OUTFALL      0.00     0.00     0.00     0  00:00        0.00
  JK-1                 OUTFALL      0.00     0.00     0.00     0  00:00        0.00
  JK-2                 OUTFALL      0.00     0.00     0.00     0  00:00        0.00
  WSC                  OUTFALL      0.30     0.54     1.21     0  02:07        0.54
  CC-storage           STORAGE      1.80     2.30     7.80     0  02:06        2.30
  JK-storage           STORAGE      2.96     5.80     6.60     0  01:40        5.80
  XR-storage           STORAGE      8.33     9.26     7.26     0  08:00        9.26
  
  
  *******************
  Node Inflow Summary
  *******************
  
  -------------------------------------------------------------------------------------------------
                                  Maximum  Maximum                  Lateral       Total        Flow
                                  Lateral    Total  Time of Max      Inflow      Inflow     Balance
                                   Inflow   Inflow   Occurrence      Volume      Volume       Error
  Node                 Type           LPS      LPS  days hr:min    10^6 ltr    10^6 ltr     Percent
  -------------------------------------------------------------------------------------------------
  HS02004478           JUNCTION      0.00  2308.24     0  01:55           0        12.1      -0.006
  HS02004479           JUNCTION      0.00   379.60     0  01:48           0        1.16       0.067
  HS02004480           JUNCTION      0.00  2053.17     0  01:46           0        8.82       0.018
  HS02004770           JUNCTION   3673.19  3936.93     0  02:02        5.85        6.19       0.046
  HS02004777           JUNCTION      0.03   706.23     0  01:43    0.000864        2.32       0.213
  HS02004785           JUNCTION      0.15   711.78     0  01:43     0.00432        2.32       0.016
  HS02004788           JUNCTION   1262.10  1262.10     0  02:02        2.06        4.27       0.000
  HS02004792           JUNCTION   4838.06  5836.88     0  02:02        8.15        12.3       0.004
  HS02004799           JUNCTION    674.26  1816.36     0  02:01           1        8.37       0.042
  HS02004802           JUNCTION      0.00  1234.03     0  02:06           0        3.64       0.104
  HS02004807           JUNCTION    870.50  2067.00     0  02:01        1.27        4.32       0.093
  HS02004817           JUNCTION      0.60  1197.13     0  02:13      0.0173        3.11       0.542
  HS02004824           JUNCTION   1442.19  2038.44     0  02:04         2.6        3.91       0.009
  HS02004830           JUNCTION      0.15   628.50     0  02:01     0.00432        1.59       0.086
  HS02004837           JUNCTION    854.36   854.36     0  02:01        1.46        2.03       0.031
  HS02004842           JUNCTION      0.00  1016.40     0  02:02           0        1.52       0.880
  HS02004848           JUNCTION   1390.89  1390.89     0  02:04        2.76        3.45       0.002
  HS02004852           JUNCTION      0.00   984.23     0  01:46           0         2.7       0.004
  HS02004856           JUNCTION    345.01  1032.45     0  01:46        0.51        3.21       0.040
  HS02004862           JUNCTION    631.79  1559.90     0  02:02        1.16        4.38      -0.003
  HS02004870           JUNCTION    473.40  1281.85     0  02:13       0.695        4.52       0.001
  HS02004876           JUNCTION    545.92  1529.51     0  02:11       0.838        5.36       0.019
  HS02004881           JUNCTION    262.00  1720.89     0  02:01       0.376        5.74       0.012
  HS02004901           JUNCTION    836.98  1102.75     0  02:01        1.24        1.94       0.087
  WS02001211           JUNCTION      7.35   206.64     0  01:36       0.212        5.44       0.611
  WS02001212           JUNCTION      0.00   212.07     0  03:08           0        5.41       0.291
  WS02001213           JUNCTION      0.00   216.62     0  03:07           0        5.39       0.370
  WS02003059           JUNCTION      0.00   221.49     0  03:07           0        5.38       0.667
  WS02003060           JUNCTION     16.53  1614.80     0  02:05       0.476        18.2       0.125
  WS02003066           JUNCTION      0.00  1400.12     0  01:59           0        12.4       0.030
  WS02003067           JUNCTION      0.00  1400.77     0  02:02           0        12.4       0.066
  WS02003069           JUNCTION      0.32  1614.11     0  02:06     0.00922        18.2       0.131
  WS02003072           JUNCTION      0.00  1613.75     0  02:06           0        18.2       0.166
  WS02003073           JUNCTION      1.82  1615.43     0  02:06      0.0524        18.2       0.182
  WS02004138           JUNCTION      0.00   380.00     0  00:00           0        5.25       0.054
  WS02004139           JUNCTION      0.32   190.32     0  00:31     0.00924        5.26       0.509
  WS02004401           JUNCTION      0.00  1400.49     0  02:02           0        12.6       0.149
  WS02004402           JUNCTION      0.00  1400.58     0  02:03           0        12.6       0.141
  WS02004403           JUNCTION      0.00  1400.98     0  02:04           0        12.6       0.131
  WS02004404           JUNCTION      0.16  1401.32     0  02:02     0.00467        12.6       0.100
  WS02004405           JUNCTION      0.04  1401.15     0  02:01      0.0011        12.5       0.150
  WS02004406           JUNCTION      0.00  1400.75     0  02:01           0        12.5       0.245
  WS02004407           JUNCTION      0.00  1400.35     0  02:02           0        12.5       0.049
  WS02004409           JUNCTION      0.00  1400.53     0  02:04           0        12.5       0.105
  WS02004410           JUNCTION      0.00  1400.10     0  02:01           0        12.5       0.122
  WS02004411           JUNCTION      0.00  1400.16     0  02:01           0        12.5       0.126
  WS02004412           JUNCTION      0.00  1400.38     0  02:02           0        12.4       0.140
  WS02004413           JUNCTION      0.00  1401.08     0  02:02           0        12.4       0.213
  WS02006109           JUNCTION      1.23  1289.50     0  01:54      0.0354        12.3       0.151
  WS02006110           JUNCTION      0.00  1121.27     0  02:32           0        11.6       0.144
  WS02006111           JUNCTION      0.00  1121.48     0  02:32           0        11.6       0.035
  WS02006112           JUNCTION    730.97  1568.34     0  02:01        1.09        12.7       0.215
  WS02006113           JUNCTION      0.00  1121.33     0  02:32           0        11.6       0.066
  WS02006115           JUNCTION      0.00  1400.32     0  02:02           0        12.6       0.133
  WS02006116           JUNCTION      0.00  1400.73     0  02:02           0        12.6       0.119
  WS02006228           JUNCTION      0.00  1289.96     0  01:55           0        12.3       0.091
  WS02006229           JUNCTION      0.00  2311.72     0  01:55           0        16.4       0.066
  WS02006230           JUNCTION     10.28  1026.75     0  01:54       0.296        8.43       0.168
  WS02006231           JUNCTION      0.00   453.31     0  02:14           0        6.41       0.105
  WS02006232           JUNCTION      0.00   453.49     0  02:10           0         6.4       0.225
  WS02006234           JUNCTION      0.00   453.17     0  02:14           0        6.38       0.084
  WS02006235           JUNCTION      0.00   446.85     0  03:23           0        6.33       0.135
  WS02006238           JUNCTION      0.00   416.12     0  02:52           0        6.07       0.067
  WS02006239           JUNCTION      0.00   415.46     0  02:37           0        6.06       0.114
  WS02006240           JUNCTION      0.00   415.24     0  02:50           0        6.06       0.162
  WS02006242           JUNCTION      0.00   415.18     0  02:37           0        6.06       0.198
  WS02006243           JUNCTION      0.00   371.48     0  00:05           0        5.39       0.171
  WS02006245           JUNCTION      0.00   383.09     0  00:05           0        5.39       0.235
  WS02006247           JUNCTION      0.00   385.59     0  00:04           0         5.4       0.120
  WS02006248           JUNCTION      0.00   390.96     0  00:04           0        5.75       0.094
  WS02006249           JUNCTION      0.00  1404.13     0  02:01           0        9.83       0.131
  WS02006251           JUNCTION      0.08  1806.21     0  02:01     0.00222        10.3       0.078
  WS02006252           JUNCTION      0.00   605.28     0  02:01           0        5.29       0.007
  WS02006253           JUNCTION     84.56  1806.11     0  02:01       0.113        5.86       0.054
  WS02006256           JUNCTION      0.00   300.00     0  00:00           0         2.1      -0.080
  WS02006280           JUNCTION      0.00  2305.22     0  01:55           0        12.1       0.007
  WS02006284           JUNCTION      0.10  2304.07     0  01:54     0.00275        12.1       0.008
  WS02006287           JUNCTION      0.00  2304.57     0  01:54           0        12.1       0.008
  WSF200               JUNCTION      0.00  1400.40     0  01:59           0        12.4       0.027
  YS02001580           JUNCTION      0.00    70.94     0  01:40           0     0.00418       0.844
  YS02001583           JUNCTION      0.00   112.26     0  01:40           0      0.0155      -3.584
  YS02001586           JUNCTION   1619.26  1619.45     0  02:05         3.3        3.31       0.032
  YS02001590           JUNCTION      0.00   318.27     0  02:06           0        1.81       0.011
  YS02001593           JUNCTION      0.00   318.14     0  02:27           0        1.81       0.030
  YS02001596           JUNCTION      0.00   318.10     0  02:17           0        1.81      -0.025
  YS02001600           JUNCTION      0.00   318.11     0  02:14           0        1.81      -0.033
  YS02001601           JUNCTION   2409.70  2727.23     0  02:02        4.25        6.06       0.018
  YS02001602           JUNCTION      0.00   492.61     0  01:40           0        2.82       0.020
  YS02001605           JUNCTION      0.00   492.90     0  01:40           0        2.56       0.024
  YS02001607           JUNCTION      0.00   493.34     0  01:40           0        2.56       0.084
  YS02001610           JUNCTION      0.00   955.06     0  02:09           0         3.4       0.075
  YS02001613           JUNCTION      0.00   618.93     0  02:07           0        2.53       0.068
  YS02001616           JUNCTION      0.00   619.04     0  02:07           0        2.53       0.025
  YS02001619           JUNCTION   2737.05  2737.05     0  02:05        5.17        6.85       0.001
  YS02001622           JUNCTION      0.00  1054.08     0  02:11           0        5.47       0.004
  YS02001625           JUNCTION      0.00  1505.54     0  02:08           0        6.14       0.279
  YS02001629           JUNCTION      0.00  1028.89     0  02:02           0        3.74      -0.022
  YS02001633           JUNCTION   1865.16  1865.16     0  02:02        3.24        5.99       0.201
  YS02001641           JUNCTION      0.00  1275.90     0  01:44           0        4.99       0.174
  YS02001644           JUNCTION   1577.44  3254.90     0  02:02        2.69        8.21       0.127
  YS02001647           JUNCTION      0.00  1610.18     0  01:45           0         5.7       0.107
  YS02001649           JUNCTION      0.00  1777.47     0  01:43           0        7.75       0.221
  YS02001652           JUNCTION      0.00  1603.13     0  02:01           0        2.61       0.140
  YS02001655           JUNCTION      0.15  1601.35     0  02:01     0.00443        2.62       0.037
  YS02001658           JUNCTION      0.00  1598.74     0  02:01           0        2.61      -0.025
  YS02001661           JUNCTION      0.00  1595.85     0  02:01           0        2.61      -0.129
  YS02001664           JUNCTION   1593.88  1593.88     0  02:01        2.61        2.61       0.018
  YS02001745           JUNCTION    933.17   933.17     0  02:01        1.46        1.47       0.070
  YS02001748           JUNCTION      0.04   934.58     0  02:01      0.0013        1.47      -0.124
  YS02001751           JUNCTION      0.01   936.72     0  02:01    0.000317        1.48       0.041
  YS02001754           JUNCTION      0.26   939.03     0  02:01     0.00749        1.49       0.240
  YS02001757           JUNCTION      0.00  2827.47     0  01:51           0        12.2       0.485
  YS02001759           JUNCTION   1368.11  1368.11     0  02:01        2.14        3.73       0.308
  YS02001762           JUNCTION      0.00   644.08     0  01:52           0         1.7       0.567
  YS02001765           JUNCTION      0.00   644.65     0  01:51           0        1.71       0.572
  YS02001767           JUNCTION      0.54   644.64     0  01:52      0.0154        1.72       0.720
  YS02001770           JUNCTION   1885.75  2170.10     0  02:02        3.12        3.26       0.312
  YS02001774           JUNCTION      0.00   852.24     0  02:07           0        1.06       0.931
  YS02001779           JUNCTION      0.01   851.86     0  02:06    0.000144        1.02       0.164
  YS02001783           JUNCTION      0.00  1004.62     0  02:01           0        5.04       0.005
  YS02001784           JUNCTION      1.06  1006.37     0  02:01      0.0305        5.07       0.011
  YS02001786           JUNCTION      0.06  1006.06     0  02:01     0.00162        5.07       0.009
  YS02001788           JUNCTION      0.07  1005.74     0  02:01     0.00204        5.07       0.004
  YS02001790           JUNCTION      0.15  1006.12     0  02:01     0.00446        5.08       0.002
  YS02001791           JUNCTION      0.00  1006.82     0  02:01           0        5.08      -0.001
  YS02001793           JUNCTION      0.00  1005.74     0  02:01           0        5.08      -0.023
  YS02001882           JUNCTION      0.00    37.37     0  01:42           0      0.0133       4.274
  YS02001884           JUNCTION      0.00    71.88     0  01:42           0      0.0495       5.389
  YS02001887           JUNCTION   1427.11  1428.88     0  02:01        2.17        2.21       0.202
  YS02001890           JUNCTION      0.00  1428.73     0  02:01           0        2.17       0.234
  YS02001895           JUNCTION      0.00   518.63     0  02:11           0        1.66       0.105
  YS02001898           JUNCTION      0.00   520.32     0  02:11           0        1.66       0.005
  YS02001901           JUNCTION      0.00   518.08     0  02:11           0        1.66       0.200
  YS02001904           JUNCTION      0.00   518.46     0  02:07           0        1.67       0.165
  YS02001907           JUNCTION      0.00  3387.92     0  02:01           0        6.28       0.289
  YS02001910           JUNCTION      0.00  1993.29     0  02:03           0         4.2       0.169
  YS02001915           JUNCTION   1584.04  2429.90     0  02:05        2.74        4.38       0.036
  YS02001918           JUNCTION      0.00   861.68     0  02:05           0        1.66       0.013
  YS02001920           JUNCTION      2.87   857.90     0  02:05      0.0827        1.65       0.046
  YS02001923           JUNCTION      0.04   855.34     0  02:05     0.00109        1.55      -0.049
  YS02001926           JUNCTION      0.05   853.80     0  02:05      0.0015        1.53       0.024
  YS02001929           JUNCTION    852.79   852.79     0  02:05        1.52        1.53      -0.034
  YS02006553           JUNCTION      0.00   878.91     0  02:01           0        2.88       0.420
  YS02006556           JUNCTION      0.00   874.98     0  02:01           0        2.89       0.277
  YS02006558           JUNCTION   1875.84  1875.84     0  02:01        3.05        5.49       0.065
  YS02006561           JUNCTION      0.00  1003.85     0  02:01           0        5.04      -0.000
  YS02163301           JUNCTION      0.00  1028.82     0  02:02           0        3.74       0.206
  YS02163601           JUNCTION      0.11  1279.22     0  01:44     0.00317           5       0.268
  YS02164001           JUNCTION      0.00  1278.50     0  01:44           0        4.99       0.162
  YSB1154              JUNCTION    875.48   875.48     0  02:01        1.34        1.34       0.111
  YSB1171              JUNCTION      0.00  1609.16     0  02:01           0        2.62       0.245
  YSB1174              JUNCTION    730.05   730.05     0  02:01        1.01        1.01       0.123
  YSB6556              JUNCTION      0.00   725.69     0  02:05           0        1.31       0.087
  CC-1                 OUTFALL       0.00   683.00     0  00:00           0         0.4       0.000
  CC-2                 OUTFALL       0.00   683.00     0  00:00           0         0.4       0.000
  JK-1                 OUTFALL       0.00  1000.00     0  00:00           0       0.277       0.000
  JK-2                 OUTFALL       0.00  1000.00     0  00:00           0       0.277       0.000
  WSC                  OUTFALL       0.00  1615.85     0  02:07           0        18.2       0.000
  CC-storage           STORAGE       0.00  2827.90     0  01:51           0        14.4       0.130
  JK-storage           STORAGE       0.00  1034.34     0  01:36           0        5.23      -0.298
  XR-storage           STORAGE     200.00   200.00     0  00:00        5.76        6.36       0.001
  
  
  **********************
  Node Surcharge Summary
  **********************
  
  Surcharging occurs when water rises above the top of the highest conduit.
  ---------------------------------------------------------------------
                                               Max. Height   Min. Depth
                                   Hours       Above Crown    Below Rim
  Node                 Type      Surcharged         Meters       Meters
  ---------------------------------------------------------------------
  HS02004478           JUNCTION        0.90          0.679        0.261
  HS02004479           JUNCTION        1.07          0.885        0.165
  HS02004480           JUNCTION        1.13          0.945        0.155
  HS02004770           JUNCTION        1.00          0.720        0.000
  HS02004777           JUNCTION        1.01          0.780        0.000
  HS02004785           JUNCTION        0.94          0.790        0.000
  HS02004788           JUNCTION        0.93          0.720        0.000
  HS02004792           JUNCTION        1.09          0.900        0.000
  HS02004799           JUNCTION        1.27          1.060        0.000
  HS02004802           JUNCTION        1.14          1.094        0.116
  HS02004807           JUNCTION        1.10          1.220        0.000
  HS02004817           JUNCTION        1.70          1.713        0.027
  HS02004824           JUNCTION        0.92          1.310        0.000
  HS02004830           JUNCTION        0.89          1.305        0.025
  HS02004837           JUNCTION        0.84          1.242        0.098
  HS02004842           JUNCTION        1.01          1.520        0.000
  HS02004848           JUNCTION        0.78          1.277        0.093
  HS02004852           JUNCTION        0.81          1.321        0.099
  HS02004856           JUNCTION        0.79          1.296        0.004
  HS02004862           JUNCTION        0.84          1.300        0.000
  HS02004870           JUNCTION        0.86          1.395        0.005
  HS02004876           JUNCTION        0.93          1.560        0.000
  HS02004881           JUNCTION        0.90          1.324        0.126
  HS02004901           JUNCTION        1.01          0.720        0.000
  WS02004401           JUNCTION        1.96          1.119        0.541
  WS02004402           JUNCTION        1.97          1.046        0.694
  WS02004403           JUNCTION        1.97          0.953        1.077
  WS02004404           JUNCTION        2.06          0.956        1.824
  WS02004405           JUNCTION        2.01          0.894        1.906
  WS02004406           JUNCTION        1.99          0.766        1.684
  WS02004407           JUNCTION        0.20          0.087        2.253
  WS02004409           JUNCTION        1.54          0.501        1.859
  WS02004410           JUNCTION        1.52          0.386        2.154
  WS02004411           JUNCTION        1.46          0.281        2.249
  WS02004412           JUNCTION        1.32          0.159        2.151
  WS02004413           JUNCTION        1.69          0.178        2.022
  WS02006109           JUNCTION        2.33          1.820        0.000
  WS02006110           JUNCTION        2.11          1.575        0.275
  WS02006111           JUNCTION        1.65          1.188        0.682
  WS02006112           JUNCTION        2.18          1.680        0.000
  WS02006113           JUNCTION        1.66          1.195        0.735
  WS02006115           JUNCTION        1.85          1.257        0.993
  WS02006116           JUNCTION        1.88          1.169        1.121
  WS02006228           JUNCTION        2.33          2.200        0.000
  WS02006229           JUNCTION        1.52          1.045        0.025
  WS02006230           JUNCTION        2.04          1.570        0.000
  WS02006231           JUNCTION        2.05          1.479        0.051
  WS02006232           JUNCTION        2.19          1.480        0.000
  WS02006234           JUNCTION        2.06          1.240        0.000
  WS02006235           JUNCTION        2.09          1.225        0.065
  WS02006238           JUNCTION        2.12          1.223        0.207
  WS02006239           JUNCTION        2.06          1.101        0.189
  WS02006240           JUNCTION        2.06          0.958        0.432
  WS02006242           JUNCTION        2.10          0.820        0.000
  WS02006243           JUNCTION        2.04          0.660        0.110
  WS02006245           JUNCTION        2.01          0.561        0.289
  WS02006247           JUNCTION        2.03          0.519        0.241
  WS02006248           JUNCTION        1.96          0.380        0.000
  WS02006249           JUNCTION        1.98          0.390        0.000
  WS02006251           JUNCTION        1.85          1.172        0.008
  WS02006252           JUNCTION        2.01          1.100        0.000
  WS02006253           JUNCTION        1.87          2.253        0.227
  WS02006256           JUNCTION        7.64          2.050        0.000
  WS02006280           JUNCTION        1.30          0.696        0.084
  WS02006284           JUNCTION        1.17          0.669        0.131
  WS02006287           JUNCTION        1.02          0.744        0.146
  YS02001580           JUNCTION        1.09          0.450        0.000
  YS02001583           JUNCTION        1.10          0.355        0.145
  YS02001586           JUNCTION        1.36          0.510        0.000
  YS02001590           JUNCTION        1.43          0.750        0.000
  YS02001593           JUNCTION        1.43          0.697        0.143
  YS02001596           JUNCTION        1.56          0.946        0.124
  YS02001600           JUNCTION        2.03          1.190        0.000
  YS02001601           JUNCTION        3.84          1.440        0.000
  YS02001602           JUNCTION        3.62          1.270        0.000
  YS02001605           JUNCTION        3.59          1.180        0.000
  YS02001607           JUNCTION        1.58          0.647        0.033
  YS02001610           JUNCTION        1.88          0.680        0.000
  YS02001613           JUNCTION        1.60          0.677        0.023
  YS02001616           JUNCTION        1.48          0.610        0.000
  YS02001619           JUNCTION        1.47          0.610        0.000
  YS02001622           JUNCTION        1.48          0.585        0.035
  YS02001625           JUNCTION        2.94          0.780        0.000
  YS02001629           JUNCTION        1.43          0.470        0.000
  YS02001633           JUNCTION        3.54          1.060        0.000
  YS02001641           JUNCTION        3.67          0.963        0.137
  YS02001644           JUNCTION        3.67          0.920        0.000
  YS02001647           JUNCTION        2.77          0.793        0.107
  YS02001649           JUNCTION        3.79          1.050        0.000
  YS02001652           JUNCTION        2.68          0.959        0.171
  YS02001655           JUNCTION        1.34          0.878        0.322
  YS02001658           JUNCTION        0.87          0.863        0.437
  YS02001661           JUNCTION        0.27          0.543        0.847
  YS02001664           JUNCTION        0.08          0.236        1.074
  YS02001745           JUNCTION        0.10          0.133        1.217
  YS02001748           JUNCTION        0.70          0.436        0.754
  YS02001751           JUNCTION        1.27          0.669        0.531
  YS02001754           JUNCTION        2.52          0.837        0.313
  YS02001757           JUNCTION        4.41          1.185        0.025
  YS02001759           JUNCTION        3.90          1.162        0.048
  YS02001762           JUNCTION        3.72          1.114        0.036
  YS02001765           JUNCTION        3.49          1.050        0.050
  YS02001767           JUNCTION        3.31          0.991        0.039
  YS02001770           JUNCTION        3.14          0.920        0.000
  YS02001774           JUNCTION        3.62          1.008        0.042
  YS02001779           JUNCTION        2.39          0.680        0.000
  YS02001783           JUNCTION        1.14          0.776        0.824
  YS02001784           JUNCTION        1.15          0.893        0.597
  YS02001786           JUNCTION        1.14          0.743        0.687
  YS02001788           JUNCTION        1.14          1.116        0.364
  YS02001790           JUNCTION        1.52          0.998        0.159
  YS02001791           JUNCTION        1.57          0.713        1.207
  YS02001793           JUNCTION        1.68          0.913        1.687
  YS02001882           JUNCTION        0.90          0.720        0.110
  YS02001884           JUNCTION        0.91          0.759        0.111
  YS02001887           JUNCTION        0.95          0.847        0.103
  YS02001890           JUNCTION        0.97          0.760        0.000
  YS02001895           JUNCTION        0.88          0.578        0.172
  YS02001898           JUNCTION        0.87          0.534        0.206
  YS02001901           JUNCTION        0.94          0.684        0.186
  YS02001904           JUNCTION        0.93          0.639        0.211
  YS02001907           JUNCTION        1.24          0.950        0.000
  YS02001910           JUNCTION        1.00          1.014        0.086
  YS02001915           JUNCTION        0.89          1.000        0.000
  YS02001918           JUNCTION        0.76          0.753        0.057
  YS02001920           JUNCTION        0.78          0.898        0.242
  YS02001923           JUNCTION        0.30          0.497        0.323
  YS02001926           JUNCTION        0.33          0.574        0.326
  YS02001929           JUNCTION        0.19          0.475        0.305
  YS02006553           JUNCTION        1.26          1.005        0.185
  YS02006556           JUNCTION        1.12          0.986        0.364
  YS02006558           JUNCTION        1.10          0.999        0.401
  YS02006561           JUNCTION        0.83          0.377        0.773
  YS02163301           JUNCTION        3.33          0.947        0.083
  YS02163601           JUNCTION        3.90          1.069        0.011
  YS02164001           JUNCTION        3.57          0.971        0.129
  YSB1154              JUNCTION        1.46          1.400        0.000
  YSB1171              JUNCTION        1.47          1.100        0.000
  YSB1174              JUNCTION        1.32          1.250        0.000
  YSB6556              JUNCTION        1.21          1.100        0.000
  
  
  *********************
  Node Flooding Summary
  *********************
  
  Flooding refers to all water that overflows a node, whether it ponds or not.
  --------------------------------------------------------------------------
                                                             Total   Maximum
                                 Maximum   Time of Max       Flood    Ponded
                        Hours       Rate    Occurrence      Volume     Depth
  Node                 Flooded       LPS   days hr:min    10^6 ltr    Meters
  --------------------------------------------------------------------------
  HS02004770              0.75   3670.72      0  02:02       3.269     0.000
  HS02004777              0.01     37.45      0  01:43       0.000     0.000
  HS02004785              0.01     61.05      0  01:43       0.000     0.000
  HS02004788              0.01    158.45      0  01:43       0.000     0.000
  HS02004792              0.74   4694.44      0  02:02       4.948     0.000
  HS02004799              0.43    511.56      0  02:01       0.368     0.000
  HS02004807              0.36    833.19      0  02:01       0.632     0.000
  HS02004824              0.31    842.05      0  02:04       0.550     0.000
  HS02004842              0.29   1016.38      0  02:02       0.593     0.000
  HS02004862              0.27   1103.79      0  02:02       0.549     0.000
  HS02004876              0.01      0.78      0  02:00       0.000     0.000
  HS02004901              0.85   1102.41      0  02:01       1.700     0.000
  WS02006109              0.80    450.97      0  02:02       0.690     0.000
  WS02006112              0.11    169.67      0  02:01       0.040     0.000
  WS02006228              0.01      2.35      0  02:15       0.000     0.000
  WS02006230              1.18    573.56      0  01:54       1.773     0.000
  WS02006232              0.25      1.17      0  02:01       0.000     0.000
  WS02006234              1.29    128.65      0  02:04       0.565     0.000
  WS02006242              1.48    137.56      0  02:37       0.679     0.000
  WS02006248              1.63    339.10      0  02:24       1.883     0.000
  WS02006249              1.84   1343.24      0  02:01       5.610     0.000
  WS02006252              0.65    605.17      0  02:01       0.848     0.000
  WS02006256              1.95    293.19      0  00:00       1.327     0.000
  YS02001580              0.01     41.70      0  01:41       0.000     0.000
  YS02001586              0.89   1301.08      0  02:05       1.486     0.000
  YS02001590              0.01      8.93      0  01:41       0.000     0.000
  YS02001600              0.01      1.63      0  01:41       0.000     0.000
  YS02001601              1.23   2328.97      0  02:02       3.241     0.000
  YS02001602              1.22     62.05      0  02:14       0.256     0.000
  YS02001605              0.01      0.42      0  02:48       0.000     0.000
  YS02001610              0.97    954.52      0  02:09       1.717     0.000
  YS02001616              0.09      2.16      0  02:03       0.000     0.000
  YS02001619              0.26   1067.18      0  02:05       0.536     0.000
  YS02001625              1.15   1505.29      0  02:08       3.361     0.000
  YS02001629              0.32    577.61      0  02:02       0.308     0.000
  YS02001633              0.01      0.63      0  02:01       0.000     0.000
  YS02001644              0.61   3254.65      0  02:02       3.049     0.000
  YS02001649              0.09    343.98      0  02:01       0.049     0.000
  YS02001770              0.22   1318.19      0  02:02       0.592     0.000
  YS02001779              0.51    851.53      0  02:06       0.999     0.000
  YS02001890              0.38    912.29      0  02:01       0.498     0.000
  YS02001907              0.69   3387.43      0  02:01       3.817     0.000
  YS02001915              0.14    436.53      0  02:05       0.145     0.000
  YSB1154                 0.11    149.77      0  02:01       0.034     0.000
  YSB1171                 0.58   1607.86      0  02:01       1.788     0.000
  YSB1174                 0.01      0.44      0  02:01       0.000     0.000
  YSB6556                 0.14     85.86      0  02:05       0.037     0.000
  CC-storage              1.27   1861.96      0  02:06       4.891     0.000
  JK-storage              1.41    686.24      0  02:01       2.524     0.000
  
  
  **********************
  Storage Volume Summary
  **********************
  
  --------------------------------------------------------------------------------------------------
                         Average     Avg  Evap Exfil       Maximum     Max    Time of Max    Maximum
                          Volume    Pcnt  Pcnt  Pcnt        Volume    Pcnt     Occurrence    Outflow
  Storage Unit           1000 m3    Full  Loss  Loss       1000 m3    Full    days hr:min        LPS
  --------------------------------------------------------------------------------------------------
  CC-storage               5.005      78     0     0         6.410     100       0  02:06    1783.53
  JK-storage               0.149      51     0     0         0.291     100       0  01:40    2300.00
  XR-storage               1.000      69     0     0         1.111      77       0  08:00     380.00
  
  
  ***********************
  Outfall Loading Summary
  ***********************
  
  -----------------------------------------------------------
                         Flow       Avg       Max       Total
                         Freq      Flow      Flow      Volume
  Outfall Node           Pcnt       LPS       LPS    10^6 ltr
  -----------------------------------------------------------
  CC-1                 100.00      8.82    683.00       0.400
  CC-2                 100.00      8.82    683.00       0.400
  JK-1                  90.19     10.75   1000.00       0.277
  JK-2                  90.19     10.75   1000.00       0.277
  WSC                   99.98    576.45   1615.85      18.152
  -----------------------------------------------------------
  System                96.07    615.60   1615.85      19.506
  
  
  ********************
  Link Flow Summary
  ********************
  
  -----------------------------------------------------------------------------
                                 Maximum  Time of Max   Maximum    Max/    Max/
                                  |Flow|   Occurrence   |Veloc|    Full    Full
  Link                 Type          LPS  days hr:min     m/sec    Flow   Depth
  -----------------------------------------------------------------------------
  1                    CONDUIT   1615.85     0  02:07      3.76    0.56    0.54
  HS02004478WS02006287 CONDUIT   2304.57     0  01:54      2.56    0.65    1.00
  HS02004479HS02004480 CONDUIT    379.77     0  01:48      0.54    0.37    1.00
  HS02004480HS02004478 CONDUIT   2052.99     0  01:46      2.93    8.65    1.00
  HS02004770HS02004777 CONDUIT    706.20     0  01:43      1.01    1.29    1.00
  HS02004777HS02004785 CONDUIT    711.63     0  01:43      1.06    0.88    1.00
  HS02004785HS02004788 CONDUIT    644.76     0  01:44      1.36    4.86    1.00
  HS02004788HS02004792 CONDUIT   1033.02     0  02:01      1.48    0.68    1.00
  HS02004792HS02004799 CONDUIT   1613.97     0  01:44      2.31    0.99    1.00
  HS02004799HS02004480 CONDUIT   1735.45     0  01:44      2.48    2.19    1.00
  HS02004802HS02004478 CONDUIT   1234.72     0  02:00      1.76    1.09    1.00
  HS02004807HS02004802 CONDUIT   1234.03     0  02:06      1.76    2.36    1.00
  HS02004817HS02004807 CONDUIT   1197.13     0  02:10      1.71    0.71    1.00
  HS02004817HS02004824 CONDUIT   1196.53     0  02:13      1.71    0.54    1.00
  HS02004824HS02004830 CONDUIT    628.96     0  02:01      0.90    0.82    1.00
  HS02004830HS02004837 CONDUIT    628.35     0  02:01      0.90    0.63    1.00
  HS02004837HS02004842 CONDUIT    730.41     0  01:47      1.04    0.44    1.00
  HS02004842HS02004848 CONDUIT    786.48     0  02:04      1.12    0.46    1.00
  HS02004848HS02004852 CONDUIT    984.23     0  01:46      1.51    1.11    1.00
  HS02004852HS02004856 CONDUIT    960.29     0  01:46      1.43    1.10    1.00
  HS02004856HS02004862 CONDUIT    989.05     0  01:46      1.65    0.99    1.00
  HS02004862HS02004870 CONDUIT   1114.25     0  02:14      1.88    1.20    1.00
  HS02004870HS02004876 CONDUIT   1282.53     0  02:13      1.83    0.85    1.00
  HS02004876HS02004881 CONDUIT   1526.34     0  02:11      2.44   16.23    1.00
  HS02004881HS02006253 CONDUIT   1721.55     0  02:01      2.75    0.34    1.00
  HS02004901HS02004770 CONDUIT    265.79     0  02:27      0.38    1.00    1.00
  WS02001211WS02001212 CONDUIT    212.07     0  03:08      0.54    0.16    0.72
  WS02001212WS02001213 CONDUIT    216.62     0  03:07      1.03    0.33    0.59
  WS02001213WS02003059 CONDUIT    221.49     0  03:07      0.47    0.37    0.92
  WS02003059WS02003060 CONDUIT    228.11     0  03:30      0.67    0.15    0.84
  WS02003060WS02003069 CONDUIT   1613.79     0  02:06      2.12    0.63    0.64
  WS02003066WSF200     CONDUIT   1400.40     0  01:59      3.29    0.24    0.40
  WS02003067WS02003066 CONDUIT   1400.12     0  01:59      2.09    0.45    0.57
  WS02003069WS02003072 CONDUIT   1613.75     0  02:06      1.94    0.78    0.69
  WS02003072WS02003073 CONDUIT   1613.61     0  02:06      2.11    3.49    0.64
  WS02004138WS02004139 CONDUIT    190.00     0  00:31      2.15    0.04    0.43
  WS02004139WS02001211 CONDUIT    199.29     0  01:36      0.54    0.25    0.63
  WS02004401WS02004402 CONDUIT   1400.58     0  02:03      1.78    1.68    1.00
  WS02004402WS02004403 CONDUIT   1400.98     0  02:04      1.78    2.01    1.00
  WS02004403WS02004404 CONDUIT   1401.15     0  02:02      1.78    1.01    1.00
  WS02004404WS02004405 CONDUIT   1401.11     0  02:01      1.78   13.73    1.00
  WS02004405WS02004406 CONDUIT   1400.75     0  02:01      1.78    2.76    1.00
  WS02004406WS02004407 CONDUIT   1400.35     0  02:02      1.78    0.63    1.00
  WS02004407WS02004409 CONDUIT   1400.53     0  02:04      1.87    0.50    1.00
  WS02004409WS02004410 CONDUIT   1400.10     0  02:01      1.78    1.81    1.00
  WS02004410WS02004411 CONDUIT   1400.16     0  02:01      1.78    1.91    1.00
  WS02004411WS02004412 CONDUIT   1400.38     0  02:02      1.78    1.99    1.00
  WS02004412WS02004413 CONDUIT   1401.08     0  02:02      1.78    0.94    1.00
  WS02004413WS02003067 CONDUIT   1400.77     0  02:02      2.13    0.60    0.78
  WS02006109WS02006110 CONDUIT   1121.27     0  02:32      2.23    2.16    1.00
  WS02006110WS02006113 CONDUIT   1121.33     0  02:32      2.23    1.02    1.00
  WS02006111WS02006112 CONDUIT   1121.82     0  02:32      2.23    0.53    1.00
  WS02006112WS02006115 CONDUIT   1400.32     0  02:02      1.78    0.83    1.00
  WS02006113WS02006111 CONDUIT   1121.48     0  02:32      2.68    1.34    1.00
  WS02006115WS02006116 CONDUIT   1400.73     0  02:02      1.78    1.80    1.00
  WS02006116WS02004401 CONDUIT   1400.49     0  02:02      1.78    1.93    1.00
  WS02006228WS02006109 CONDUIT   1288.27     0  01:54      2.56    5.63    1.00
  WS02006229WS02006228 CONDUIT   1289.96     0  01:55      2.57    4.27    1.00
  WS02006230WS02006229 CONDUIT   1016.47     0  01:54      2.64   22.62    1.00
  WS02006231WS02006230 CONDUIT    453.31     0  02:14      1.18    6.88    1.00
  WS02006232WS02006231 CONDUIT    453.49     0  02:10      1.18    0.95    1.00
  WS02006234WS02006232 CONDUIT    453.17     0  02:14      1.41    0.92    1.00
  WS02006235WS02006234 CONDUIT    446.89     0  03:23      1.23    4.71    1.00
  WS02006238WS02006235 CONDUIT    416.12     0  02:52      1.45    0.93    1.00
  WS02006239WS02006238 CONDUIT    415.46     0  02:37      1.12    1.33    1.00
  WS02006240WS02006239 CONDUIT    415.24     0  02:50      1.26    1.31    1.00
  WS02006242WS02006240 CONDUIT    415.18     0  02:37      1.14    1.65    1.00
  WS02006243WS02006242 CONDUIT    363.62     0  03:25      1.34    0.78    1.00
  WS02006245WS02006243 CONDUIT    371.48     0  00:05      1.39    1.10    1.00
  WS02006247WS02006245 CONDUIT    383.09     0  00:05      1.37    3.04    1.00
  WS02006248WS02006247 CONDUIT    385.59     0  00:04      1.38    0.84    1.00
  WS02006249WS02006248 CONDUIT    390.96     0  00:04      1.38    2.14    1.00
  WS02006251WS02006249 CONDUIT   1404.13     0  02:01      3.65    4.05    1.00
  WS02006252WS02006251 CONDUIT    403.28     0  02:01      3.83    1.48    1.00
  WS02006253WS02006251 CONDUIT   1806.13     0  02:01      4.69    5.42    1.00
  WS02006256WS02006235 CONDUIT    288.93     0  00:00      4.23    3.06    1.00
  WS02006280WS02006229 CONDUIT   2311.72     0  01:55      4.61    0.49    1.00
  WS02006284WS02006280 CONDUIT   2305.22     0  01:55      2.96    0.97    1.00
  WS02006287WS02006284 CONDUIT   2303.97     0  01:54      2.93    1.07    1.00
  WSF200WS02003060     CONDUIT   1400.84     0  01:59      2.37    0.31    0.53
  YS02001580YS02001583 CONDUIT     70.94     0  01:40      0.51    0.27    1.00
  YS02001583YS02001586 CONDUIT    112.26     0  01:40      0.45    0.17    1.00
  YS02001586YS02001590 CONDUIT    318.27     0  02:06      1.25    0.56    1.00
  YS02001590YS02001593 CONDUIT    318.14     0  02:27      1.13    2.00    1.00
  YS02001593YS02001596 CONDUIT    318.10     0  02:17      1.61    0.50    1.00
  YS02001596YS02001600 CONDUIT    318.11     0  02:14      1.13    0.62    1.00
  YS02001600YS02001601 CONDUIT    318.39     0  02:14      1.13    0.55    1.00
  YS02001601YS02001602 CONDUIT    492.61     0  01:40      1.74    1.78    1.00
  YS02001602YS02001605 CONDUIT    492.90     0  01:40      1.74   10.43    1.00
  YS02001605YS02001607 CONDUIT    493.34     0  01:40      1.74    2.71    1.00
  YS02001607YS02001610 CONDUIT    494.36     0  01:40      0.63    0.47    1.00
  YS02001610YS02001613 CONDUIT    619.05     0  02:07      0.79    0.71    1.00
  YS02001613YS02001616 CONDUIT    618.93     0  02:07      0.79    0.53    1.00
  YS02001616YS02001619 CONDUIT    619.04     0  02:07      0.79    1.07    1.00
  YS02001619YS02001622 CONDUIT   1054.08     0  02:11      1.34    1.55    1.00
  YS02001622YS02001625 CONDUIT   1053.76     0  02:08      1.34    0.56    1.00
  YS02001625YS02001629 CONDUIT    908.24     0  01:44      1.16    0.43    1.00
  YS02001629YS02163301 CONDUIT   1028.89     0  02:02      1.31    1.27    1.00
  YS02001633YS02163601 CONDUIT   1279.11     0  01:44      1.63    1.34    1.00
  YS02001641YS02001644 CONDUIT   1275.23     0  01:44      1.62    4.12    1.00
  YS02001644YS02001647 CONDUIT   1610.18     0  01:45      2.10    0.95    1.00
  YS02001647YS02001649 CONDUIT   1614.06     0  01:45      2.27    0.85    1.00
  YS02001649YS02001757 CONDUIT   1764.83     0  01:46      2.35    1.07    1.00
  YS02001652YS02001649 CONDUIT   1604.85     0  02:01      2.04    0.80    1.00
  YS02001655YS02001652 CONDUIT   1603.13     0  02:01      2.04    0.78    1.00
  YS02001658YS02001655 CONDUIT   1601.19     0  02:01      2.04    0.68    1.00
  YS02001661YS02001658 CONDUIT   1598.74     0  02:01      2.15    0.63    1.00
  YS02001664YS02001661 CONDUIT   1595.85     0  02:01      2.05    0.50    1.00
  YS02001745YS02001748 CONDUIT    934.54     0  02:01      1.95    0.36    1.00
  YS02001748YS02001751 CONDUIT    936.70     0  02:01      1.55    0.47    1.00
  YS02001751YS02001754 CONDUIT    938.77     0  02:01      1.38    0.45    1.00
  YS02001754YS02001757 CONDUIT    940.85     0  02:01      1.20    0.38    1.00
  YS02001757CaochengTiaoxuchi CONDUIT   2827.90     0  01:51      3.60    1.22    1.00
  YS02001759YS02001757 CONDUIT   1223.70     0  01:58      1.56    0.87    1.00
  YS02001762YS02001759 CONDUIT    643.43     0  01:51      0.82    0.74    1.00
  YS02001765YS02001762 CONDUIT    644.08     0  01:52      0.82    0.60    1.00
  YS02001767YS02001765 CONDUIT    644.65     0  01:51      0.82    0.81    1.00
  YS02001770YS02001767 CONDUIT    644.10     0  01:52      0.82    2.55    1.00
  YS02001774YS02001770 CONDUIT    852.24     0  02:07      1.09    0.54    1.00
  YS02001779YS02001774 CONDUIT    851.86     0  02:06      1.08    0.43    1.00
  YS02001783YS02001784 CONDUIT   1005.31     0  02:01      2.00    1.39    1.00
  YS02001784YS02001785 CONDUIT   1006.01     0  02:01      2.00    2.34    1.00
  YS02001786YS02001788 CONDUIT   1005.67     0  02:01      2.19    1.94    1.00
  YS02001788YS02001790 CONDUIT   1005.96     0  02:01      2.28    0.74    1.00
  YS02001790YS02001791 CONDUIT   1006.82     0  02:01      2.70    1.10    1.00
  YS02001791YS02001793 CONDUIT   1005.74     0  02:01      5.05    0.43    1.00
  YS02001793JiankangQianchi CONDUIT   1034.34     0  01:36      1.63    0.08    1.00
  YS02001882YS02001884 CONDUIT     37.37     0  01:42      0.20    0.04    1.00
  YS02001884YS02001887 CONDUIT     71.88     0  01:42      0.15    0.10    1.00
  YS02001887YS02001890 CONDUIT   1428.73     0  02:01      1.82    2.45    1.00
  YS02001890YS02001895 CONDUIT    518.63     0  02:11      0.66    0.24    1.00
  YS02001895YS02001898 CONDUIT    520.32     0  02:11      0.66    0.90    1.00
  YS02001898YS02001901 CONDUIT    518.08     0  02:11      0.66    0.33    1.00
  YS02001901YS02001904 CONDUIT    518.46     0  02:07      0.66    0.80    1.00
  YS02001904YS02001907 CONDUIT    520.60     0  02:06      0.66    0.18    1.00
  YS02001907YS02006553 CONDUIT    880.11     0  02:01      0.98    1.04    1.00
  YS02001910YS02001907 CONDUIT   1993.11     0  02:04      2.54    1.12    1.00
  YS02001915YS02001910 CONDUIT   1993.29     0  02:03      2.54    0.99    1.00
  YS02001918YS02001915 CONDUIT    860.29     0  02:05      1.10    0.47    1.00
  YS02001920YS02001918 CONDUIT    861.68     0  02:05      1.10    0.83    1.00
  YS02001923YS02001920 CONDUIT    855.03     0  02:05      1.09    0.38    1.00
  YS02001926YS02001923 CONDUIT    855.30     0  02:05      1.09    1.22    1.00
  YS02001929YS02001926 CONDUIT    853.75     0  02:05      1.09    0.41    1.00
  YS02006553YS02006556 CONDUIT    878.91     0  02:01      1.12    0.75    1.00
  YS02006556YS02006558 CONDUIT    874.98     0  02:01      1.11    0.69    1.00
  YS02006558YS02006561 CONDUIT   1003.85     0  02:01      3.55    2.22    1.00
  YS02006561YS02001783 CONDUIT   1004.62     0  02:01      2.11    0.52    1.00
  YS02163301YS02001633 CONDUIT   1028.82     0  02:02      1.31    0.97    1.00
  YS02163601YS02164001 CONDUIT   1278.50     0  01:44      1.63    1.13    1.00
  YS02164001YS02001641 CONDUIT   1275.90     0  01:44      1.62    1.74    1.00
  YSB1154YSB6556       CONDUIT    725.69     0  02:05      1.89    1.30    1.00
  YSB1171HS02004479    CONDUIT    379.60     0  01:48      0.76    0.25    1.00
  YSB1174YSB1171       CONDUIT    730.40     0  02:01      1.90    1.12    1.00
  YSB6556YSB1171       CONDUIT    639.84     0  02:06      1.66    0.66    1.00
  CC-R1                PUMP       683.00     0  00:00              1.00
  CC-R2                PUMP       683.00     0  00:00              1.00
  CC-S1                PUMP       200.00     0  00:00              1.00
  CC-S2                PUMP       200.00     0  00:00              1.00
  JK-R1                PUMP      1000.00     0  00:00              1.00
  JK-R2                PUMP      1000.00     0  00:00              1.00
  JK-S                 PUMP       300.00     0  00:00              1.00
  XR-1                 PUMP        95.00     0  00:00              1.00
  XR-2                 PUMP        95.00     0  00:00              1.00
  XR-3                 PUMP        95.00     0  00:00              1.00
  XR-4                 PUMP        95.00     0  00:00              1.00
  
  
  ***************************
  Flow Classification Summary
  ***************************
  
  -------------------------------------------------------------------------------------
                      Adjusted    ---------- Fraction of Time in Flow Class ---------- 
                       /Actual         Up    Down  Sub   Sup   Up    Down  Norm  Inlet 
  Conduit               Length    Dry  Dry   Dry   Crit  Crit  Crit  Crit  Ltd   Ctrl  
  -------------------------------------------------------------------------------------
  1                       1.00   0.00  0.00  0.00  0.00  1.00  0.00  0.00  0.37  0.00
  HS02004478WS02006287    1.00   0.04  0.00  0.00  0.85  0.11  0.00  0.00  0.57  0.00
  HS02004479HS02004480    1.00   0.01  0.00  0.00  0.99  0.00  0.00  0.00  0.10  0.00
  HS02004480HS02004478    1.00   0.04  0.00  0.00  0.79  0.00  0.00  0.17  0.00  0.00
  HS02004770HS02004777    1.00   0.00  0.04  0.00  0.96  0.00  0.00  0.00  0.01  0.00
  HS02004777HS02004785    1.00   0.00  0.00  0.00  1.00  0.00  0.00  0.00  0.10  0.00
  HS02004785HS02004788    1.00   0.00  0.00  0.00  1.00  0.00  0.00  0.00  0.00  0.00
  HS02004788HS02004792    1.00   0.00  0.00  0.00  1.00  0.00  0.00  0.00  0.84  0.00
  HS02004792HS02004799    1.00   0.00  0.00  0.00  1.00  0.00  0.00  0.00  0.79  0.00
  HS02004799HS02004480    1.00   0.00  0.01  0.00  0.96  0.00  0.03  0.00  0.00  0.00
  HS02004802HS02004478    1.00   0.04  0.00  0.00  0.96  0.00  0.00  0.00  0.02  0.00
  HS02004807HS02004802    1.00   0.04  0.00  0.00  0.96  0.00  0.00  0.00  0.00  0.00
  HS02004817HS02004807    1.00   0.00  0.04  0.00  0.96  0.00  0.00  0.00  0.01  0.00
  HS02004817HS02004824    1.00   0.00  0.00  0.00  1.00  0.00  0.00  0.00  0.77  0.00
  HS02004824HS02004830    1.00   0.00  0.00  0.00  1.00  0.00  0.00  0.00  0.01  0.00
  HS02004830HS02004837    1.00   0.00  0.00  0.00  1.00  0.00  0.00  0.00  0.81  0.00
  HS02004837HS02004842    1.00   0.00  0.00  0.00  1.00  0.00  0.00  0.00  0.11  0.00
  HS02004842HS02004848    1.00   0.00  0.04  0.00  0.96  0.00  0.00  0.00  0.54  0.00
  HS02004848HS02004852    1.00   0.04  0.00  0.00  0.96  0.00  0.00  0.00  0.66  0.00
  HS02004852HS02004856    1.00   0.04  0.00  0.00  0.96  0.00  0.00  0.00  0.63  0.00
  HS02004856HS02004862    1.00   0.00  0.04  0.00  0.96  0.00  0.00  0.00  0.69  0.00
  HS02004862HS02004870    1.00   0.00  0.00  0.00  1.00  0.00  0.00  0.00  0.02  0.00
  HS02004870HS02004876    1.00   0.00  0.00  0.00  1.00  0.00  0.00  0.00  0.79  0.00
  HS02004876HS02004881    1.00   0.01  0.00  0.00  0.91  0.08  0.00  0.00  0.00  0.00
  HS02004881HS02006253    1.00   0.01  0.00  0.00  0.93  0.01  0.00  0.04  0.69  0.00
  HS02004901HS02004770    1.00   0.04  0.00  0.00  0.96  0.00  0.00  0.00  0.00  0.00
  WS02001211WS02001212    1.00   0.00  0.01  0.00  0.99  0.00  0.00  0.00  0.00  0.00
  WS02001212WS02001213    1.00   0.01  0.00  0.00  0.37  0.00  0.62  0.00  0.00  0.00
  WS02001213WS02003059    1.00   0.00  0.00  0.00  1.00  0.00  0.00  0.00  0.00  0.00
  WS02003059WS02003060    1.00   0.00  0.00  0.00  1.00  0.00  0.00  0.00  0.03  0.00
  WS02003060WS02003069    1.00   0.00  0.00  0.00  0.99  0.01  0.00  0.00  0.12  0.00
  WS02003066WSF200        1.00   0.04  0.00  0.00  0.00  0.96  0.00  0.00  0.59  0.00
  WS02003067WS02003066    1.00   0.03  0.01  0.00  0.96  0.00  0.00  0.00  0.00  0.00
  WS02003069WS02003072    1.00   0.00  0.00  0.00  1.00  0.00  0.00  0.00  0.16  0.00
  WS02003072WS02003073    1.00   0.00  0.00  0.00  0.00  0.00  0.00  1.00  0.00  0.00
  WS02004138WS02004139    1.00   0.00  0.00  0.00  0.99  0.00  0.00  0.01  0.98  0.00
  WS02004139WS02001211    1.00   0.00  0.00  0.00  1.00  0.00  0.00  0.00  0.00  0.00
  WS02004401WS02004402    1.00   0.01  0.00  0.00  0.99  0.00  0.00  0.00  0.00  0.00
  WS02004402WS02004403    1.00   0.01  0.00  0.00  0.99  0.00  0.00  0.00  0.00  0.00
  WS02004403WS02004404    1.00   0.00  0.01  0.00  0.99  0.00  0.00  0.00  0.00  0.00
  WS02004404WS02004405    1.00   0.00  0.00  0.00  1.00  0.00  0.00  0.00  0.00  0.00
  WS02004405WS02004406    1.00   0.00  0.00  0.00  1.00  0.00  0.00  0.00  0.00  0.00
  WS02004406WS02004407    1.00   0.00  0.02  0.00  0.98  0.00  0.00  0.00  0.00  0.00
  WS02004407WS02004409    1.00   0.02  0.00  0.00  0.98  0.00  0.00  0.00  0.75  0.00
  WS02004409WS02004410    1.00   0.02  0.00  0.00  0.98  0.00  0.00  0.00  0.03  0.00
  WS02004410WS02004411    1.00   0.02  0.00  0.00  0.98  0.00  0.00  0.00  0.00  0.00
  WS02004411WS02004412    1.00   0.02  0.00  0.00  0.98  0.00  0.00  0.00  0.00  0.00
  WS02004412WS02004413    1.00   0.02  0.00  0.00  0.98  0.00  0.00  0.00  0.01  0.00
  WS02004413WS02003067    1.00   0.02  0.01  0.00  0.00  0.00  0.97  0.00  0.00  0.00
  WS02006109WS02006110    1.00   0.00  0.00  0.00  0.99  0.00  0.00  0.00  0.00  0.00
  WS02006110WS02006113    1.00   0.00  0.00  0.00  0.99  0.00  0.00  0.00  0.00  0.00
  WS02006111WS02006112    1.00   0.01  0.00  0.00  0.99  0.00  0.00  0.00  0.72  0.00
  WS02006112WS02006115    1.00   0.01  0.00  0.00  0.99  0.00  0.00  0.00  0.00  0.00
  WS02006113WS02006111    1.00   0.01  0.00  0.00  0.12  0.87  0.00  0.00  0.12  0.00
  WS02006115WS02006116    1.00   0.01  0.00  0.00  0.99  0.00  0.00  0.00  0.00  0.00
  WS02006116WS02004401    1.00   0.01  0.00  0.00  0.99  0.00  0.00  0.00  0.00  0.00
  WS02006228WS02006109    1.00   0.00  0.00  0.00  1.00  0.00  0.00  0.00  0.00  0.00
  WS02006229WS02006228    1.00   0.00  0.00  0.00  1.00  0.00  0.00  0.00  0.00  0.00
  WS02006230WS02006229    1.00   0.00  0.00  0.00  0.99  0.00  0.00  0.01  0.00  0.00
  WS02006231WS02006230    1.00   0.00  0.00  0.00  0.23  0.00  0.77  0.00  0.00  0.00
  WS02006232WS02006231    1.00   0.00  0.00  0.00  1.00  0.00  0.00  0.00  0.00  0.00
  WS02006234WS02006232    1.00   0.00  0.00  0.00  1.00  0.00  0.00  0.00  0.03  0.00
  WS02006235WS02006234    1.00   0.00  0.00  0.00  0.98  0.00  0.02  0.00  0.00  0.00
  WS02006238WS02006235    1.00   0.00  0.00  0.00  1.00  0.00  0.00  0.00  0.00  0.00
[...]
  WSF200WS02003060        1.00   0.00  0.04  0.00  0.75  0.21  0.00  0.00  0.48  0.00
  YS02001580YS02001583    1.00   0.08  0.73  0.00  0.19  0.00  0.00  0.00  0.62  0.00
  YS02001583YS02001586    1.00   0.50  0.24  0.00  0.26  0.00  0.00  0.00  0.62  0.00
  YS02001586YS02001590    1.00   0.04  0.00  0.00  0.38  0.04  0.00  0.54  0.29  0.00
  YS02001590YS02001593    1.00   0.04  0.00  0.00  0.10  0.00  0.86  0.00  0.00  0.00
  YS02001593YS02001596    1.00   0.04  0.00  0.00  0.33  0.02  0.00  0.61  0.19  0.00
  YS02001596YS02001600    1.00   0.04  0.00  0.00  0.66  0.01  0.00  0.29  0.14  0.00
  YS02001600YS02001601    1.00   0.04  0.00  0.00  0.96  0.00  0.00  0.00  0.18  0.00
  YS02001601YS02001602    1.00   0.04  0.00  0.00  0.96  0.00  0.00  0.00  0.00  0.00
  YS02001602YS02001605    1.00   0.04  0.00  0.00  0.96  0.00  0.00  0.00  0.00  0.00
  YS02001605YS02001607    1.00   0.04  0.00  0.00  0.96  0.00  0.00  0.00  0.00  0.00
  YS02001607YS02001610    1.00   0.04  0.00  0.00  0.96  0.00  0.00  0.00  0.01  0.00
  YS02001610YS02001613    1.00   0.04  0.00  0.00  0.96  0.00  0.00  0.00  0.00  0.00
  YS02001613YS02001616    1.00   0.04  0.00  0.00  0.96  0.00  0.00  0.00  0.00  0.00
  YS02001616YS02001619    1.00   0.04  0.00  0.00  0.96  0.00  0.00  0.00  0.00  0.00
  YS02001619YS02001622    1.00   0.04  0.00  0.00  0.96  0.00  0.00  0.00  0.03  0.00
  YS02001622YS02001625    1.00   0.04  0.00  0.00  0.96  0.00  0.00  0.00  0.02  0.00
  YS02001625YS02001629    1.00   0.04  0.01  0.00  0.86  0.00  0.10  0.00  0.00  0.00
  YS02001629YS02163301    1.00   0.04  0.00  0.00  0.96  0.00  0.00  0.00  0.00  0.00
  YS02001633YS02163601    1.00   0.00  0.00  0.00  1.00  0.00  0.00  0.00  0.14  0.00
  YS02001641YS02001644    1.00   0.00  0.00  0.00  1.00  0.00  0.00  0.00  0.00  0.00
  YS02001644YS02001647    1.00   0.00  0.04  0.00  0.96  0.00  0.00  0.00  0.00  0.00
  YS02001647YS02001649    1.00   0.00  0.04  0.00  0.95  0.01  0.00  0.00  0.01  0.00
  YS02001649YS02001757    1.00   0.00  0.00  0.00  0.98  0.02  0.00  0.00  0.16  0.00
  YS02001652YS02001649    1.00   0.00  0.00  0.00  0.99  0.01  0.00  0.00  0.14  0.00
  YS02001655YS02001652    1.00   0.00  0.00  0.00  0.93  0.00  0.00  0.06  0.02  0.00
  YS02001658YS02001655    1.00   0.00  0.04  0.00  0.92  0.04  0.00  0.00  0.17  0.00
  YS02001661YS02001658    1.00   0.04  0.00  0.00  0.91  0.05  0.00  0.00  0.37  0.00
  YS02001664YS02001661    1.00   0.04  0.00  0.00  0.92  0.04  0.00  0.00  0.75  0.00
  YS02001745YS02001748    1.00   0.00  0.00  0.00  0.68  0.00  0.00  0.32  0.22  0.00
  YS02001748YS02001751    1.00   0.00  0.00  0.00  0.95  0.05  0.00  0.00  0.25  0.00
  YS02001751YS02001754    1.00   0.00  0.00  0.00  0.92  0.00  0.00  0.07  0.02  0.00
  YS02001754YS02001757    1.00   0.00  0.00  0.00  1.00  0.00  0.00  0.00  0.19  0.00
  YS02001757CaochengTiaoxuchi    1.00   0.00  0.00  0.00  1.00  0.00  0.00  0.00  0.18  0.00
  YS02001759YS02001757    1.00   0.00  0.00  0.00  1.00  0.00  0.00  0.00  0.06  0.00
  YS02001762YS02001759    1.00   0.00  0.00  0.00  1.00  0.00  0.00  0.00  0.02  0.00
  YS02001765YS02001762    1.00   0.00  0.00  0.00  1.00  0.00  0.00  0.00  0.13  0.00
  YS02001767YS02001765    1.00   0.00  0.00  0.00  1.00  0.00  0.00  0.00  0.00  0.00
  YS02001770YS02001767    1.00   0.00  0.00  0.00  1.00  0.00  0.00  0.00  0.00  0.00
  YS02001774YS02001770    1.00   0.00  0.04  0.00  0.96  0.00  0.00  0.00  0.01  0.00
  YS02001779YS02001774    1.00   0.00  0.00  0.00  1.00  0.00  0.00  0.00  0.15  0.00
  YS02001783YS02001784    1.00   0.00  0.05  0.00  0.95  0.00  0.00  0.00  0.56  0.00
  YS02001784YS02001785    1.00   0.00  0.00  0.00  1.00  0.00  0.00  0.00  0.14  0.00
  YS02001786YS02001788    1.00   0.00  0.00  0.00  0.91  0.09  0.00  0.00  0.00  0.00
  YS02001788YS02001790    1.00   0.00  0.00  0.00  0.15  0.85  0.00  0.00  0.76  0.00
  YS02001790YS02001791    1.00   0.00  0.00  0.00  0.11  0.89  0.00  0.00  0.05  0.00
  YS02001791YS02001793    1.00   0.00  0.00  0.00  0.12  0.88  0.00  0.00  0.01  0.00
  YS02001793JiankangQianchi    1.00   0.00  0.00  0.00  1.00  0.00  0.00  0.00  0.77  0.00
  YS02001882YS02001884    1.00   0.04  0.00  0.00  0.96  0.00  0.00  0.00  0.00  0.00
  YS02001884YS02001887    1.00   0.02  0.02  0.00  0.97  0.00  0.00  0.00  0.00  0.00
  YS02001887YS02001890    1.00   0.00  0.00  0.00  0.99  0.00  0.01  0.00  0.00  0.00
  YS02001890YS02001895    1.00   0.00  0.04  0.00  0.96  0.00  0.00  0.00  0.00  0.00
  YS02001895YS02001898    1.00   0.04  0.00  0.00  0.95  0.00  0.00  0.00  0.00  0.00
  YS02001898YS02001901    1.00   0.04  0.00  0.00  0.96  0.00  0.00  0.00  0.00  0.00
  YS02001901YS02001904    1.00   0.04  0.00  0.00  0.96  0.00  0.00  0.00  0.00  0.00
  YS02001904YS02001907    1.00   0.00  0.04  0.00  0.96  0.00  0.00  0.00  0.00  0.00
  YS02001907YS02006553    1.00   0.00  0.01  0.00  0.99  0.00  0.00  0.00  0.00  0.00
  YS02001910YS02001907    1.00   0.00  0.00  0.00  0.99  0.00  0.00  0.01  0.11  0.00
  YS02001915YS02001910    1.00   0.00  0.00  0.00  0.99  0.01  0.00  0.00  0.12  0.00
  YS02001918YS02001915    1.00   0.00  0.00  0.00  0.99  0.01  0.00  0.00  0.69  0.00
  YS02001920YS02001918    1.00   0.00  0.00  0.00  1.00  0.00  0.00  0.00  0.00  0.00
  YS02001923YS02001920    1.00   0.00  0.00  0.00  1.00  0.00  0.00  0.00  0.87  0.00
  YS02001926YS02001923    1.00   0.00  0.02  0.00  0.05  0.00  0.93  0.00  0.00  0.00
  YS02001929YS02001926    1.00   0.00  0.04  0.00  0.96  0.00  0.00  0.00  0.77  0.00
  YS02006553YS02006556    1.00   0.00  0.00  0.00  1.00  0.00  0.00  0.00  0.03  0.00
  YS02006556YS02006558    1.00   0.00  0.00  0.00  1.00  0.00  0.00  0.00  0.00  0.00
  YS02006558YS02006561    1.00   0.05  0.00  0.00  0.06  0.89  0.00  0.00  0.13  0.00
  YS02006561YS02001783    1.00   0.05  0.00  0.00  0.10  0.86  0.00  0.00  0.67  0.00
  YS02163301YS02001633    1.00   0.00  0.04  0.00  0.96  0.00  0.00  0.00  0.00  0.00
  YS02163601YS02164001    1.00   0.00  0.02  0.00  0.97  0.00  0.00  0.00  0.00  0.00
  YS02164001YS02001641    1.00   0.00  0.02  0.00  0.97  0.00  0.00  0.00  0.05  0.00
  YSB1154YSB6556          1.00   0.04  0.00  0.00  0.96  0.00  0.00  0.00  0.01  0.00
  YSB1171HS02004479       1.00   0.01  0.00  0.00  0.98  0.00  0.00  0.00  0.09  0.00
  YSB1174YSB1171          1.00   0.02  0.01  0.00  0.97  0.00  0.00  0.00  0.00  0.00
  YSB6556YSB1171          1.00   0.01  0.02  0.00  0.96  0.00  0.00  0.00  0.00  0.00
  
  
  *************************
  Conduit Surcharge Summary
  *************************
  
  ----------------------------------------------------------------------------
                                                           Hours        Hours 
                         --------- Hours Full --------   Above Full   Capacity
  Conduit                Both Ends  Upstream  Dnstream   Normal Flow   Limited
  ----------------------------------------------------------------------------
  HS02004478WS02006287        0.90      0.90      1.14      0.01         0.01
  HS02004479HS02004480        1.13      1.13      1.16      0.01         0.01
  HS02004480HS02004478        1.03      1.13      1.03      1.99         1.03
  HS02004770HS02004777        1.00      1.00      1.01      0.14         0.09
  HS02004777HS02004785        0.94      0.94      1.01      0.01         0.01
  HS02004785HS02004788        0.93      0.94      0.93      1.70         0.71
  HS02004788HS02004792        0.93      0.93      1.09      0.01         0.01
  HS02004792HS02004799        1.09      1.09      1.27      0.01         0.01
  HS02004799HS02004480        1.13      1.13      1.27      1.43         0.01
  HS02004802HS02004478        1.05      1.05      1.15      0.38         0.01
  HS02004807HS02004802        1.10      1.10      1.14      0.57         0.58
  HS02004817HS02004807        1.10      1.10      1.70      0.01         0.01
  HS02004817HS02004824        0.92      0.92      1.70      0.01         0.01
  HS02004824HS02004830        0.89      0.89      0.92      0.01         0.01
  HS02004830HS02004837        0.84      0.84      0.89      0.01         0.01
  HS02004837HS02004842        0.84      0.84      1.01      0.01         0.01
  HS02004842HS02004848        0.78      0.78      1.01      0.01         0.01
  HS02004848HS02004852        0.78      0.78      0.81      0.03         0.01
  HS02004852HS02004856        0.81      0.81      0.84      0.02         0.01
  HS02004856HS02004862        0.79      0.79      0.84      0.01         0.01
  HS02004862HS02004870        0.84      0.84      0.86      0.35         0.34
  HS02004870HS02004876        0.86      0.86      0.93      0.01         0.01
  HS02004876HS02004881        0.90      0.93      0.90      1.84         0.90
  HS02004881HS02006253        0.90      0.90      1.87      0.01         0.01
  HS02004901HS02004770        1.00      1.00      1.01      0.32         0.01
  WS02003072WS02003073        0.01      0.01      0.01      3.13         0.01
  WS02004401WS02004402        1.96      1.96      1.97      1.75         1.73
  WS02004402WS02004403        1.97      1.97      1.97      1.95         1.95
  WS02004403WS02004404        1.97      1.97      2.06      0.13         0.15
  WS02004404WS02004405        2.01      2.06      2.01      6.69         2.01
  WS02004405WS02004406        1.99      2.01      1.99      2.15         1.99
  WS02004406WS02004407        0.20      0.20      1.99      0.01         0.01
  WS02004407WS02004409        0.20      0.20      1.54      0.01         0.01
  WS02004409WS02004410        1.52      1.54      1.52      1.84         1.52
  WS02004410WS02004411        1.46      1.52      1.46      1.91         1.46
  WS02004411WS02004412        1.32      1.46      1.32      1.94         1.32
  WS02004412WS02004413        1.32      1.32      1.69      0.01         0.01
  WS02004413WS02003067        0.01      0.01      1.69      0.01         0.01
  WS02006109WS02006110        2.11      2.11      2.38      2.11         0.01
  WS02006110WS02006113        1.66      1.66      2.36      0.32         0.01
  WS02006111WS02006112        1.65      1.65      2.67      0.01         0.01
  WS02006112WS02006115        1.85      1.85      2.18      0.01         0.01
  WS02006113WS02006111        1.66      1.66      1.66      1.74         1.60
  WS02006115WS02006116        1.87      1.87      1.88      1.83         1.82
  WS02006116WS02004401        1.95      1.95      1.96      1.92         1.91
  WS02006228WS02006109        2.33      2.38      2.33      3.95         2.33
  WS02006229WS02006228        2.33      2.34      2.33      2.59         2.33
  WS02006230WS02006229        2.42      2.47      2.42      6.88         0.78
  WS02006231WS02006230        2.04      2.04      2.06      6.78         1.55
  WS02006232WS02006231        2.05      2.05      2.19      0.01         0.28
  WS02006234WS02006232        2.08      2.08      2.19      0.01         0.01
  WS02006235WS02006234        2.06      2.06      2.09      6.59         1.53
  WS02006238WS02006235        2.11      2.11      2.14      0.01         0.64
  WS02006239WS02006238        2.11      2.12      2.12      1.50         0.06
  WS02006240WS02006239        2.06      2.07      2.06      1.49         0.03
  WS02006242WS02006240        2.06      2.06      2.13      1.84         1.50
  WS02006243WS02006242        2.05      2.05      2.10      0.01         0.01
  WS02006245WS02006243        2.03      2.03      2.04      0.06         0.02
  WS02006247WS02006245        2.01      2.04      2.01      6.51         0.37
  WS02006248WS02006247        1.98      1.98      2.03      0.01         0.01
  WS02006249WS02006248        1.96      1.96      1.98      4.86         0.01
  WS02006251WS02006249        1.96      1.97      1.98      1.63         1.59
  WS02006252WS02006251        1.93      1.93      2.01      0.37         0.28
  WS02006253WS02006251        1.96      1.96      1.98      1.29         0.01
  WS02006256WS02006235        6.77      6.78      7.62      0.62         0.01
  WS02006280WS02006229        1.33      1.33      1.52      0.01         0.01
  WS02006284WS02006280        1.17      1.17      1.30      0.01         0.01
  WS02006287WS02006284        1.02      1.02      1.18      0.62         0.62
  YS02001580YS02001583        1.09      1.09      1.17      0.01         0.01
  YS02001583YS02001586        1.10      1.10      1.36      0.01         0.01
  YS02001586YS02001590        1.37      1.37      1.43      0.01         0.01
  YS02001590YS02001593        1.43      1.43      1.45      1.41         0.01
  YS02001593YS02001596        1.45      1.45      1.56      0.01         0.01
  YS02001596YS02001600        1.62      1.62      2.03      0.01         0.01
  YS02001600YS02001601        2.50      2.50      3.84      0.01         0.01
  YS02001601YS02001602        3.62      3.62      3.95      1.64         0.01
  YS02001602YS02001605        3.59      3.59      3.62      2.44         0.02
  YS02001605YS02001607        3.55      3.59      3.80      1.80         1.69
  YS02001607YS02001610        1.58      1.58      1.88      0.01         0.01
  YS02001610YS02001613        1.60      1.60      1.88      0.01         0.01
  YS02001613YS02001616        1.48      1.48      1.60      0.01         0.01
  YS02001616YS02001619        1.47      1.47      1.48      0.25         0.19
  YS02001619YS02001622        1.46      1.47      1.48      1.18         1.07
  YS02001622YS02001625        1.48      1.48      2.94      0.01         0.01
  YS02001625YS02001629        1.43      1.43      2.94      0.01         0.01
  YS02001629YS02163301        3.19      3.19      3.33      0.22         0.08
  YS02001633YS02163601        3.54      3.54      3.90      0.15         0.14
  YS02001641YS02001644        3.65      3.67      3.67      1.78         1.45
  YS02001644YS02001647        2.77      2.77      3.67      0.01         0.01
  YS02001647YS02001649        2.77      2.77      3.79      0.01         0.01
  YS02001649YS02001757        3.79      3.79      4.41      0.07         0.04
  YS02001652YS02001649        2.82      2.82      3.79      0.01         0.01
  YS02001655YS02001652        1.34      1.34      2.68      0.01         0.01
  YS02001658YS02001655        0.86      0.86      1.34      0.01         0.01
  YS02001661YS02001658        0.27      0.27      0.87      0.01         0.01
  YS02001664YS02001661        0.08      0.08      0.37      0.01         0.01
  YS02001745YS02001748        0.10      0.10      0.70      0.01         0.01
  YS02001748YS02001751        0.91      0.91      1.27      0.01         0.01
  YS02001751YS02001754        1.27      1.27      2.52      0.01         0.01
  YS02001754YS02001757        2.77      2.77      4.41      0.01         0.01
  YS02001757CaochengTiaoxuchi        4.41      4.41      6.35      0.29         0.29
  YS02001759YS02001757        3.90      3.90      4.41      0.01         0.01
  YS02001762YS02001759        3.72      3.72      3.90      0.01         0.01
  YS02001765YS02001762        3.49      3.49      3.72      0.01         0.01
  YS02001767YS02001765        3.31      3.31      3.49      0.01         0.01
  YS02001770YS02001767        3.28      3.28      3.31      0.71         0.66
  YS02001774YS02001770        3.14      3.14      3.62      0.01         0.01
  YS02001779YS02001774        2.39      2.39      3.62      0.01         0.01
  YS02001783YS02001784        1.14      1.14      1.15      1.06         1.02
  YS02001784YS02001785        1.14      1.15      1.14      1.45         1.14
  YS02001786YS02001788        1.14      1.14      1.14      1.28         1.14
  YS02001788YS02001790        1.14      1.14      1.52      0.01         0.01
  YS02001790YS02001791        1.52      1.52      1.57      0.75         0.74
  YS02001791YS02001793        1.57      1.57      1.71      0.01         0.01
  YS02001793JiankangQianchi        1.67      1.67      7.70      0.01         0.01
  YS02001882YS02001884        0.90      0.90      0.91      0.01         0.01
  YS02001884YS02001887        0.94      0.94      0.95      0.01         0.01
  YS02001887YS02001890        0.97      0.97      0.98      0.30         0.01
  YS02001890YS02001895        0.88      0.88      1.01      0.01         0.01
  YS02001895YS02001898        0.87      0.87      0.88      0.01         0.01
  YS02001898YS02001901        0.88      0.88      0.94      0.01         0.01
  YS02001901YS02001904        0.93      0.93      0.94      0.01         0.01
  YS02001904YS02001907        0.93      0.93      1.26      0.01         0.01
  YS02001907YS02006553        1.46      1.46      1.54      0.02         0.03
  YS02001910YS02001907        1.00      1.00      1.24      0.17         0.17
  YS02001915YS02001910        0.89      0.89      1.00      0.01         0.02
  YS02001918YS02001915        0.76      0.76      0.89      0.01         0.01
  YS02001920YS02001918        0.76      0.76      0.78      0.01         0.01
  YS02001923YS02001920        0.69      0.69      0.78      0.01         0.01
  YS02001926YS02001923        0.30      0.30      0.33      0.14         0.01
  YS02001929YS02001926        0.19      0.19      0.33      0.01         0.01
  YS02006553YS02006556        1.12      1.12      1.26      0.01         0.01
  YS02006556YS02006558        1.18      1.18      1.28      0.01         0.01
  YS02006558YS02006561        0.94      1.10      0.94      1.38         0.94
  YS02006561YS02001783        0.83      0.83      1.14      0.01         0.01
  YS02163301YS02001633        3.33      3.33      3.64      0.01         0.01
  YS02163601YS02164001        3.57      3.57      3.90      0.10         0.01
  YS02164001YS02001641        3.57      3.57      3.67      0.58         0.54
  YSB1154YSB6556              1.21      1.21      1.46      0.17         0.01
  YSB1171HS02004479           1.07      1.07      1.47      0.01         0.01
  YSB1174YSB1171              1.32      1.32      1.66      0.05         0.05
  YSB6556YSB1171              1.21      1.21      1.76      0.01         0.01
  
  
  ***************
  Pumping Summary
  ***************
  
  ---------------------------------------------------------------------------------------------------------
                                                  Min       Avg       Max     Total     Power    % Time Off
                        Percent   Number of      Flow      Flow      Flow    Volume     Usage    Pump Curve
  Pump                 Utilized   Start-Ups       LPS       LPS       LPS  10^6 ltr     Kw-hr    Low   High
  ---------------------------------------------------------------------------------------------------------
  CC-R1                  100.00           1      0.00      8.82    683.00     0.400      7.26    0.0   58.4
  CC-R2                  100.00           1      0.00      8.82    683.00     0.400      7.26    0.0   58.4
  CC-S1                   81.97           2      0.00    200.00    200.00     4.721     18.04    0.0   46.0
  CC-S2                  100.00           1      0.00      2.58    200.00     0.117      0.67    0.0   37.7
  JK-R1                   79.60           5      0.00     10.75   1000.00     0.276      3.11    0.0    0.0
  JK-R2                   79.60           5      0.00     10.75   1000.00     0.276      3.11    0.0    0.0
  JK-S                    24.34           3      0.00    300.00    300.00     2.103     16.94    0.0    0.0
  XR-1                    97.91           2      0.00     95.00     95.00     2.679      9.62    0.0    0.0
  XR-2                    93.95           2      0.00     95.00     95.00     2.570      8.79    0.0    0.0
  XR-3                     0.00           1      0.00     95.00     95.00     0.000      0.00    0.0    0.0
  XR-4                     0.00           1      0.00     95.00     95.00     0.000      0.00    0.0    0.0
  

  Analysis begun on:  Wed Jun 21 13:56:11 2023
  Analysis ended on:  Wed Jun 21 13:56:18 2023
  Total elapsed time: 00:00:07