
  OWA STORM WATER MANAGEMENT MODEL - VERSION v5.1.14 (OWA 2022-07-31)
  --------------------------------------------------------------

  WARNING 04: minimum elevation drop used for Conduit WS02004404WS02004405
  WARNING 03: negative offset ignored for Link YS02001904YS02001907
  
  *********************************************************
  NOTE: The summary statistics displayed in this report are
  based on results found at every computational time step,  
  not just on results from each reporting time step.
  *********************************************************
  
  ****************
  Analysis Options
  ****************
  Flow Units ............... LPS
  Process Models:
    Rainfall/Runoff ........ YES
    RDII ................... NO
    Snowmelt ............... NO
    Groundwater ............ NO
    Flow Routing ........... YES
    Ponding Allowed ........ NO
    Water Quality .......... NO
  Infiltration Method ...... HORTON
  Flow Routing Method ...... DYNWAVE
  Surcharge Method ......... EXTRAN
  Starting Date ............ 08/28/2015 08:00:00
  Ending Date .............. 08/28/2015 16:00:00
  Antecedent Dry Days ...... 8.0
  Report Time Step ......... 00:01:00
  Wet Time Step ............ 00:01:00
  Dry Time Step ............ 00:01:00
  Routing Time Step ........ 30.00 sec
  Variable Time Step ....... YES
  Maximum Trials ........... 8
  Number of Threads ........ 2
  Head Tolerance ........... 0.001500 m
  
  
  **************************        Volume         Depth
  Runoff Quantity Continuity     hectare-m            mm
  **************************     ---------       -------
  Initial LID Storage ......         0.072         1.184
  Total Precipitation ......         1.568        25.887
  Evaporation Loss .........         0.000         0.000
  Infiltration Loss ........         0.175         2.893
  Surface Runoff ...........         1.080        17.834
  Final Storage ............         0.385         6.360
  Continuity Error (%) .....        -0.059
  
  
  **************************        Volume        Volume
  Flow Routing Continuity        hectare-m      10^6 ltr
  **************************     ---------     ---------
  Dry Weather Inflow .......         0.630         6.296
  Wet Weather Inflow .......         1.080        10.804
  Groundwater Inflow .......         0.000         0.000
  RDII Inflow ..............         0.000         0.000
  External Inflow ..........         0.105         1.045
  External Outflow .........         1.438        14.375
  Flooding Loss ............         0.167         1.666
  Evaporation Loss .........         0.000         0.000
  Exfiltration Loss ........         0.000         0.000
  Initial Stored Volume ....         0.303         3.031
  Final Stored Volume ......         0.515         5.155
  Continuity Error (%) .....        -0.093
  
  
  *************************
  Highest Continuity Errors
  *************************
  Node YS02001884 (5.96%)
  Node YS02001774 (5.56%)
  Node YS02001583 (-4.78%)
  Node HS02004842 (4.12%)
  Node WS02006256 (-2.26%)
  
  
  ***************************
  Time-Step Critical Elements
  ***************************
  Link WS02006252WS02006251 (76.57%)
  Link WS02006280WS02006229 (12.31%)
  Link WS02006238WS02006235 (4.77%)
  Link YS02001791YS02001793 (1.27%)
  Link YS02006556YS02006558 (1.04%)
  
  
  ********************************
  Highest Flow Instability Indexes
  ********************************
  Link WS02006113WS02006111 (21)
  Link WS02006256WS02006235 (10)
  Link WS02004404WS02004405 (8)
  Link WS02006111WS02006112 (8)
  Link WS02006252WS02006251 (6)
  
  
  *************************
  Routing Time Step Summary
  *************************
  Minimum Time Step           :     0.00 sec
  Average Time Step           :     1.91 sec
  Maximum Time Step           :     6.46 sec
  Percent in Steady State     :    -0.00
  Average Iterations per Step :     2.47
  Percent Not Converging      :     4.41
  
  
  ***************************
  Subcatchment Runoff Summary
  ***************************
  
  ------------------------------------------------------------------------------------------------------------------------------
                            Total      Total      Total      Total     Imperv       Perv      Total       Total     Peak  Runoff
                           Precip      Runon       Evap      Infil     Runoff     Runoff     Runoff      Runoff   Runoff   Coeff
  Subcatchment                 mm         mm         mm         mm         mm         mm         mm    10^6 ltr      LPS
  ------------------------------------------------------------------------------------------------------------------------------
  sub0                      25.89       0.00       0.00       0.86      22.82       0.95      23.77        0.02    15.96   0.918
  sub1                      25.89       0.00       0.00       1.31      19.53       1.24      20.77        0.14    92.34   0.802
  sub10                     25.89       0.00       0.00       0.83      18.31       0.85      19.16        0.21   148.61   0.740
  sub11                     25.89       0.00       0.00       0.76      17.03       0.81      17.83        0.21   157.70   0.689
  sub12                     25.89       0.00       0.00       1.33      17.31       1.40      18.72        0.16   134.98   0.723
  sub14                     25.89       0.00       0.00       0.83      16.12       0.86      16.98        0.16   120.75   0.656
  sub15                     25.89       0.00       0.00       3.80      14.49       2.76      17.25        0.30   196.35   0.667
  sub16                     25.89       0.00       0.00       4.03      14.14       3.32      17.46        0.18   136.28   0.675
  sub17                     25.89       0.00       0.00       4.32      15.61       3.43      19.04        0.16   117.63   0.736
  sub2                      25.89       0.00       0.00       5.84      14.27       3.03      17.30        0.16    89.98   0.668
  sub22                     25.89       0.00       0.00       6.67      13.53       4.11      17.64        1.11   703.63   0.681
  sub23                     25.89       0.00       0.00       5.06      13.93       3.59      17.52        0.84   565.25   0.677
  sub3                      25.89       0.00       0.00       6.12      14.11       2.67      16.78        0.38   189.59   0.648
  sub4                      25.89       0.00       0.00       1.44      19.17       1.08      20.25        0.42   210.42   0.782
  sub5                      25.89       0.00       0.00       0.74      18.90       0.76      19.66        0.22   152.26   0.760
  sub60                     25.89       0.00       0.00       1.19      16.65       1.21      17.86        0.23   180.82   0.690
  sub61                     25.89       0.00       0.00       1.83      16.64       1.77      18.41        0.34   259.78   0.711
  sub62                     25.89       0.00       0.00       0.81      17.73       0.82      18.55        0.51   354.23   0.717
  sub63                     25.89       0.00       0.00       3.38      14.25       2.77      17.02        0.39   279.77   0.657
  sub64                     25.89       0.00       0.00       1.62      16.21       1.41      17.62        0.42   278.35   0.681
  sub65                     25.89       0.00       0.00       1.49      17.49       1.28      18.77        0.52   323.44   0.725
  sub66                     25.89       0.00       0.00       3.87      13.75       2.09      15.83        0.74   391.99   0.612
  sub67                     25.89       0.00       0.00       0.80      18.19       0.87      19.06        0.35   287.12   0.736
  sub68                     25.89       0.00       0.00       1.41      16.06       1.36      17.41        0.48   352.50   0.673
  sub69                     25.89       0.00       0.00       1.24      17.36       1.83      19.20        0.71   425.25   0.742
  sub7                      25.89       0.00       0.00       0.88      17.28       0.93      18.21        0.06    47.77   0.704
  sub70                     25.89       0.00       0.00       4.10      13.88       3.11      16.99        0.49   228.19   0.656
  sub71                     25.89       0.00       0.00       0.75      16.10       0.73      16.83        0.44   286.86   0.650
  sub72                     25.89       0.00       0.00       0.71      17.37       0.67      18.04        0.25   144.46   0.697
  sub8                      25.89       0.00       0.00       0.86      16.79       0.90      17.69        0.11    85.04   0.683
  sub9                      25.89       0.00       0.00       0.83      16.28       0.87      17.15        0.08    61.92   0.662
  

  ***********************
  LID Performance Summary
  ***********************

  --------------------------------------------------------------------------------------------------------------------
                                         Total      Evap     Infil   Surface    Drain    Initial     Final  Continuity
                                        Inflow      Loss      Loss   Outflow   Outflow   Storage   Storage       Error
  Subcatchment      LID Control             mm        mm        mm        mm        mm        mm        mm           %
  --------------------------------------------------------------------------------------------------------------------
  sub1              GreenRoof            25.89      0.00      0.00      0.00      0.00      7.05     33.00       -0.20
  sub10             GreenRoof            25.89      0.00      0.00      0.00      0.00      7.05     33.00       -0.20
  sub11             GreenRoof            25.89      0.00      0.00      0.00      0.00      7.05     33.00       -0.20
  sub12             GreenRoof            25.89      0.00      0.00      0.00      0.00      7.05     33.00       -0.20
  sub14             GreenRoof            25.89      0.00      0.00      0.00      0.00      7.05     33.00       -0.20
  sub15             GreenRoof            25.89      0.00      0.00      0.00      0.00      7.05     33.00       -0.20
  sub16             GreenRoof            25.89      0.00      0.00      0.00      0.00      7.05     33.00       -0.20
  sub17             GreenRoof            25.89      0.00      0.00      0.00      0.00      7.05     33.00       -0.20
  sub2              GreenRoof            25.89      0.00      0.00      0.00      0.00      7.05     33.00       -0.20
  sub22             GreenRoof            25.89      0.00      0.00      0.00      0.00      7.05     33.00       -0.20
  sub23             GreenRoof            25.89      0.00      0.00      0.00      0.00      7.05     33.00       -0.20
  sub3              GreenRoof            25.89      0.00      0.00      0.00      0.00      7.05     33.00       -0.20
  sub4              GreenRoof            25.89      0.00      0.00      0.00      0.00      7.05     33.00       -0.20
  sub5              GreenRoof            25.89      0.00      0.00      0.00      0.00      7.05     33.00       -0.20
  sub60             GreenRoof            25.89      0.00      0.00      0.00      0.00      7.05     33.00       -0.20
  sub61             GreenRoof            25.89      0.00      0.00      0.00      0.00      7.05     33.00       -0.20
  sub62             GreenRoof            25.89      0.00      0.00      0.00      0.00      7.05     33.00       -0.20
  sub63             GreenRoof            25.89      0.00      0.00      0.00      0.00      7.05     33.00       -0.20
  sub64             GreenRoof            25.89      0.00      0.00      0.00      0.00      7.05     33.00       -0.20
  sub65             GreenRoof            25.89      0.00      0.00      0.00      0.00      7.05     33.00       -0.20
  sub66             GreenRoof            25.89      0.00      0.00      0.00      0.00      7.05     33.00       -0.20
  sub67             GreenRoof            25.89      0.00      0.00      0.00      0.00      7.05     33.00       -0.20
  sub68             GreenRoof            25.89      0.00      0.00      0.00      0.00      7.05     33.00       -0.20
  sub69             GreenRoof            25.89      0.00      0.00      0.00      0.00      7.05     33.00       -0.20
  sub7              GreenRoof            25.89      0.00      0.00      0.00      0.00      7.05     33.00       -0.20
  sub70             GreenRoof            25.89      0.00      0.00      0.00      0.00      7.05     33.00       -0.20
  sub71             GreenRoof            25.89      0.00      0.00      0.00      0.00      7.05     33.00       -0.20
  sub72             GreenRoof            25.89      0.00      0.00      0.00      0.00      7.05     33.00       -0.20
  sub8              GreenRoof            25.89      0.00      0.00      0.00      0.00      7.05     33.00       -0.20
  sub9              GreenRoof            25.89      0.00      0.00      0.00      0.00      7.05     33.00       -0.20
  
  ******************
  Node Depth Summary
  ******************
  
  ---------------------------------------------------------------------------------
                                 Average  Maximum  Maximum  Time of Max    Reported
                                   Depth    Depth      HGL   Occurrence   Max Depth
  Node                 Type       Meters   Meters   Meters  days hr:min      Meters
  ---------------------------------------------------------------------------------
  HS02004478           JUNCTION     0.11     1.11    10.34     0  02:26        0.92
  HS02004479           JUNCTION     0.17     1.38    10.59     0  02:26        1.14
  HS02004480           JUNCTION     0.14     1.33    10.57     0  02:26        1.09
  HS02004770           JUNCTION     0.16     1.42    11.25     0  02:25        1.42
  HS02004777           JUNCTION     0.18     1.48    11.28     0  02:25        1.38
  HS02004785           JUNCTION     0.08     1.40    11.30     0  02:25        1.17
  HS02004788           JUNCTION     0.06     1.38    11.28     0  02:25        1.09
  HS02004792           JUNCTION     0.08     1.60    11.12     0  02:24        1.30
  HS02004799           JUNCTION     0.19     1.54    10.75     0  02:26        1.30
  HS02004802           JUNCTION     0.20     1.17    10.29     0  02:26        1.02
  HS02004807           JUNCTION     0.17     1.32    10.49     0  02:24        0.99
  HS02004817           JUNCTION     0.47     1.50    10.35     0  02:26        1.32
  HS02004824           JUNCTION     0.06     1.02    10.42     0  02:26        0.77
  HS02004830           JUNCTION     0.07     0.80    10.27     0  02:27        0.70
  HS02004837           JUNCTION     0.05     0.62    10.20     0  02:27        0.59
  HS02004842           JUNCTION     0.35     0.91    10.18     0  02:27        0.87
  HS02004848           JUNCTION     0.03     0.52    10.12     0  02:27        0.51
  HS02004852           JUNCTION     0.03     0.54    10.05     0  02:28        0.54
  HS02004856           JUNCTION     0.09     0.57     9.99     0  02:28        0.54
  HS02004862           JUNCTION     0.04     0.50     9.89     0  02:28        0.48
  HS02004870           JUNCTION     0.03     0.45     9.73     0  02:28        0.45
  HS02004876           JUNCTION     0.07     0.70     9.73     0  02:30        0.68
  HS02004881           JUNCTION     0.02     0.62     9.65     0  02:29        0.62
  HS02004901           JUNCTION     0.16     1.42    11.24     0  02:25        1.42
  WS02001211           JUNCTION     0.62     0.79     5.63     0  02:30        0.79
  WS02001212           JUNCTION     0.36     0.55     5.61     0  02:29        0.55
  WS02001213           JUNCTION     0.56     0.84     5.61     0  02:29        0.84
  WS02003059           JUNCTION     0.63     0.91     5.60     0  02:30        0.91
  WS02003060           JUNCTION     0.34     0.66     5.59     0  02:30        0.66
  WS02003066           JUNCTION     0.19     0.43     5.99     0  02:28        0.43
  WS02003067           JUNCTION     0.48     0.87     6.19     0  02:25        0.87
  WS02003069           JUNCTION     0.38     0.74     5.33     0  02:31        0.74
  WS02003072           JUNCTION     0.44     0.78     5.15     0  02:31        0.78
  WS02003073           JUNCTION     0.26     0.49     4.56     0  02:32        0.49
  WS02004138           JUNCTION     0.13     0.14     7.39     0  00:32        0.14
  WS02004139           JUNCTION     0.56     0.72     5.63     0  02:29        0.72
  WS02004401           JUNCTION     0.61     1.69     7.69     0  02:26        1.65
  WS02004402           JUNCTION     0.64     1.64     7.60     0  02:26        1.61
  WS02004403           JUNCTION     0.66     1.58     7.51     0  02:26        1.56
  WS02004404           JUNCTION     0.73     1.60     7.45     0  02:26        1.59
  WS02004405           JUNCTION     0.72     1.55     7.40     0  02:26        1.55
  WS02004406           JUNCTION     0.73     1.45     7.28     0  02:27        1.45
  WS02004407           JUNCTION     0.18     0.77     7.08     0  02:26        0.77
  WS02004409           JUNCTION     0.40     1.28     7.05     0  02:26        1.28
  WS02004410           JUNCTION     0.42     1.21     6.93     0  02:26        1.20
  WS02004411           JUNCTION     0.43     1.14     6.82     0  02:26        1.13
  WS02004412           JUNCTION     0.45     1.06     6.70     0  02:26        1.06
  WS02004413           JUNCTION     0.60     1.11     6.58     0  02:26        1.11
  WS02006109           JUNCTION     0.71     2.64     9.26     0  02:26        2.55
  WS02006110           JUNCTION     0.69     2.32     8.91     0  02:26        2.26
  WS02006111           JUNCTION     0.24     1.56     8.26     0  02:26        1.51
  WS02006112           JUNCTION     0.78     2.15     8.03     0  02:26        2.11
  WS02006113           JUNCTION     0.31     1.70     8.59     0  02:26        1.66
  WS02006115           JUNCTION     0.51     1.76     7.90     0  02:26        1.73
  WS02006116           JUNCTION     0.59     1.76     7.80     0  02:26        1.73
  WS02006228           JUNCTION     0.72     2.91     9.56     0  02:26        2.80
  WS02006229           JUNCTION     0.70     3.04     9.73     0  02:26        2.93
  WS02006230           JUNCTION     0.65     2.65     9.39     0  02:23        2.65
  WS02006231           JUNCTION     0.42     2.19     9.32     0  02:25        2.19
  WS02006232           JUNCTION     0.51     2.18     9.22     0  02:23        2.18
  WS02006234           JUNCTION     0.40     1.96     9.12     0  02:23        1.96
  WS02006235           JUNCTION     0.42     1.98     9.14     0  02:38        1.91
  WS02006238           JUNCTION     0.45     1.99     9.13     0  02:38        1.92
  WS02006239           JUNCTION     0.39     1.83     9.04     0  02:38        1.78
  WS02006240           JUNCTION     0.36     1.66     8.95     0  02:38        1.63
  WS02006242           JUNCTION     0.41     1.55     8.82     0  02:21        1.55
  WS02006243           JUNCTION     0.32     1.37     8.79     0  02:31        1.37
  WS02006245           JUNCTION     0.32     1.27     8.76     0  02:23        1.27
  WS02006247           JUNCTION     0.33     1.23     8.73     0  02:23        1.22
  WS02006248           JUNCTION     0.29     1.10     8.69     0  02:20        1.10
  WS02006249           JUNCTION     0.32     1.09     8.69     0  02:20        1.09
  WS02006251           JUNCTION     0.32     1.98     9.65     0  02:20        1.72
  WS02006252           JUNCTION     0.24     1.50     9.74     0  00:00        1.18
  WS02006253           JUNCTION     0.35     3.52    11.16     0  02:20        2.01
  WS02006256           JUNCTION     0.67     2.35     9.28     0  00:00        2.35
  WS02006280           JUNCTION     0.14     1.53     9.80     0  02:26        1.41
  WS02006284           JUNCTION     0.42     1.62    10.02     0  02:26        1.49
  WS02006287           JUNCTION     0.16     1.30    10.26     0  02:26        1.12
  WSF200               JUNCTION     0.17     0.49     5.72     0  02:30        0.49
  YS02001580           JUNCTION     0.01     1.05     9.59     0  02:26        0.67
  YS02001583           JUNCTION     0.04     1.05     9.55     0  02:26        0.71
  YS02001586           JUNCTION     0.07     1.13     9.30     0  02:26        0.92
  YS02001590           JUNCTION     0.15     1.39     9.25     0  02:26        1.19
  YS02001593           JUNCTION     0.08     1.33     9.19     0  02:26        1.15
  YS02001596           JUNCTION     0.12     1.68     9.10     0  02:26        1.56
  YS02001600           JUNCTION     0.15     1.87     9.00     0  02:26        1.81
  YS02001601           JUNCTION     0.33     2.06     8.90     0  02:25        2.06
  YS02001602           JUNCTION     0.26     1.87     8.77     0  02:26        1.83
  YS02001605           JUNCTION     0.24     1.74     8.64     0  02:26        1.65
  YS02001607           JUNCTION     0.26     1.56     8.40     0  02:26        1.36
  YS02001610           JUNCTION     0.30     1.61     8.40     0  02:26        1.39
  YS02001613           JUNCTION     0.26     1.55     8.39     0  02:26        1.32
  YS02001616           JUNCTION     0.20     1.46     8.37     0  02:26        1.20
  YS02001619           JUNCTION     0.17     1.42     8.35     0  02:26        1.16
  YS02001622           JUNCTION     0.16     1.38     8.28     0  02:26        1.13
  YS02001625           JUNCTION     0.42     1.66     8.26     0  02:26        1.35
  YS02001629           JUNCTION     0.26     1.73     8.28     0  02:26        1.35
  YS02001633           JUNCTION     0.34     1.67     8.12     0  02:26        1.38
  YS02001641           JUNCTION     0.34     1.31     7.75     0  02:26        1.17
  YS02001644           JUNCTION     0.34     1.17     7.60     0  02:26        1.11
  YS02001647           JUNCTION     0.13     0.76     7.37     0  02:26        0.74
  YS02001649           JUNCTION     0.26     0.88     7.27     0  02:28        0.84
  YS02001652           JUNCTION     0.09     0.66     7.26     0  02:28        0.66
  YS02001655           JUNCTION     0.04     0.42     7.27     0  02:27        0.38
  YS02001658           JUNCTION     0.04     0.23     7.38     0  02:25        0.23
  YS02001661           JUNCTION     0.10     0.29     7.70     0  02:25        0.29
  YS02001664           JUNCTION     0.03     0.20     8.13     0  02:25        0.20
  YS02001745           JUNCTION     0.03     0.18     7.70     0  02:25        0.18
  YS02001748           JUNCTION     0.03     0.20     7.28     0  02:25        0.20
  YS02001751           JUNCTION     0.03     0.29     7.17     0  02:31        0.26
  YS02001754           JUNCTION     0.07     0.57     7.17     0  02:31        0.52
  YS02001757           JUNCTION     0.35     0.90     7.16     0  02:30        0.89
  YS02001759           JUNCTION     0.27     0.81     7.17     0  02:30        0.78
  YS02001762           JUNCTION     0.24     0.75     7.15     0  02:30        0.75
  YS02001765           JUNCTION     0.20     0.71     7.16     0  02:30        0.70
  YS02001767           JUNCTION     0.18     0.68     7.17     0  02:29        0.67
  YS02001770           JUNCTION     0.18     0.68     7.18     0  02:29        0.67
  YS02001774           JUNCTION     0.24     0.76     7.18     0  02:29        0.75
  YS02001779           JUNCTION     0.04     0.50     7.19     0  02:28        0.50
  YS02001783           JUNCTION     0.13     0.77     6.92     0  02:28        0.77
  YS02001784           JUNCTION     0.16     0.76     6.83     0  02:29        0.76
  YS02001786           JUNCTION     0.14     0.62     6.65     0  02:29        0.62
  YS02001788           JUNCTION     0.10     0.49     6.47     0  02:29        0.49
  YS02001790           JUNCTION     0.12     0.58     6.23     0  02:29        0.58
  YS02001791           JUNCTION     0.08     0.35     5.82     0  02:29        0.35
  YS02001793           JUNCTION     0.04     0.19     5.02     0  03:00        0.18
  YS02001882           JUNCTION     0.17     0.82     7.53     0  02:29        0.81
  YS02001884           JUNCTION     0.26     0.91     7.53     0  02:29        0.91
  YS02001887           JUNCTION     0.33     0.99     7.53     0  02:29        0.99
  YS02001890           JUNCTION     0.36     1.03     7.53     0  02:29        1.03
  YS02001895           JUNCTION     0.14     0.78     7.53     0  02:29        0.78
  YS02001898           JUNCTION     0.15     0.79     7.52     0  02:28        0.79
  YS02001901           JUNCTION     0.26     0.92     7.53     0  02:28        0.91
  YS02001904           JUNCTION     0.24     0.90     7.53     0  02:28        0.89
  YS02001907           JUNCTION     0.56     1.24     7.53     0  02:28        1.23
  YS02001910           JUNCTION     0.35     1.03     7.54     0  02:28        1.02
  YS02001915           JUNCTION     0.17     0.83     7.55     0  02:28        0.81
  YS02001918           JUNCTION     0.06     0.48     7.55     0  02:28        0.48
  YS02001920           JUNCTION     0.14     0.55     7.56     0  02:29        0.53
  YS02001923           JUNCTION     0.04     0.29     7.55     0  02:29        0.29
  YS02001926           JUNCTION     0.09     0.31     7.76     0  02:26        0.31
  YS02001929           JUNCTION     0.03     0.18     7.87     0  02:26        0.18
  YS02006553           JUNCTION     0.56     1.23     7.52     0  02:28        1.22
  YS02006556           JUNCTION     0.53     1.19     7.50     0  02:28        1.18
  YS02006558           JUNCTION     0.58     1.22     7.49     0  02:28        1.20
  YS02006561           JUNCTION     0.08     0.40     7.06     0  02:28        0.40
  YS02163301           JUNCTION     0.28     1.70     8.21     0  02:26        1.34
  YS02163601           JUNCTION     0.38     1.54     7.94     0  02:26        1.32
  YS02164001           JUNCTION     0.32     1.39     7.84     0  02:26        1.20
  YSB1154              JUNCTION     0.30     1.60    10.66     0  02:26        1.32
  YSB1171              JUNCTION     0.45     1.72    10.62     0  02:26        1.45
  YSB1174              JUNCTION     0.26     1.52    10.63     0  02:26        1.25
  YSB6556              JUNCTION     0.20     1.48    10.65     0  02:26        1.20
  CC-1                 OUTFALL      0.00     0.00     0.00     0  00:00        0.00
  CC-2                 OUTFALL      0.00     0.00     0.00     0  00:00        0.00
  JK-1                 OUTFALL      0.00     0.00     0.00     0  00:00        0.00
  JK-2                 OUTFALL      0.00     0.00     0.00     0  00:00        0.00
  WSC                  OUTFALL      0.26     0.49     1.16     0  02:32        0.49
  CC-storage           STORAGE      1.04     1.37     6.87     0  02:46        1.37
  JK-storage           STORAGE      2.78     4.24     5.04     0  02:28        4.16
  XR-storage           STORAGE      7.98     9.26     7.26     0  08:00        9.26
  
  
  *******************
  Node Inflow Summary
  *******************
  
  -------------------------------------------------------------------------------------------------
                                  Maximum  Maximum                  Lateral       Total        Flow
                                  Lateral    Total  Time of Max      Inflow      Inflow     Balance
                                   Inflow   Inflow   Occurrence      Volume      Volume       Error
  Node                 Type           LPS      LPS  days hr:min    10^6 ltr    10^6 ltr     Percent
  -------------------------------------------------------------------------------------------------
  HS02004478           JUNCTION      0.00  1986.64     0  02:26           0        3.93      -0.023
  HS02004479           JUNCTION      0.00   289.51     0  02:26           0       0.395       0.157
  HS02004480           JUNCTION      0.00  1964.59     0  02:26           0        3.02       0.081
  HS02004770           JUNCTION    565.25   703.91     0  02:25       0.836        1.02       0.274
  HS02004777           JUNCTION      0.03   717.33     0  02:25    0.000864        1.01       0.509
  HS02004785           JUNCTION      0.15   728.64     0  02:25     0.00432        1.01       0.021
  HS02004788           JUNCTION    198.02   876.08     0  02:26       0.345        1.36       0.049
  HS02004792           JUNCTION    703.91  1562.93     0  02:26        1.12        2.48       0.015
  HS02004799           JUNCTION    120.75  1675.77     0  02:26       0.162        2.64       0.094
  HS02004802           JUNCTION      0.00   332.05     0  02:38           0       0.933       0.414
  HS02004807           JUNCTION    157.70   348.14     0  02:26       0.207       0.966       0.422
  HS02004817           JUNCTION      0.60   347.11     0  02:26      0.0173       0.805       2.063
  HS02004824           JUNCTION    210.47   558.27     0  02:26       0.424       0.868       0.075
  HS02004830           JUNCTION      0.15   569.20     0  02:26     0.00432       0.524       0.259
  HS02004837           JUNCTION    154.96   666.28     0  02:26       0.394       0.615       0.135
  HS02004842           JUNCTION      0.00   573.78     0  02:27           0       0.317       4.298
  HS02004848           JUNCTION    189.59   761.86     0  02:27       0.378       0.579       0.010
  HS02004852           JUNCTION      0.00   748.98     0  02:27           0       0.476       0.011
  HS02004856           JUNCTION     61.92   787.52     0  02:28      0.0825       0.559       0.257
  HS02004862           JUNCTION     90.18   866.74     0  02:28       0.167       0.724       0.022
  HS02004870           JUNCTION     85.04   933.82     0  02:28       0.113       0.837       0.014
  HS02004876           JUNCTION     92.34   999.63     0  02:29       0.138       0.975       0.051
  HS02004881           JUNCTION     47.77   970.75     0  02:29      0.0614        1.04       0.057
  HS02004901           JUNCTION    136.28   136.28     0  02:25       0.183       0.183       0.938
  WS02001211           JUNCTION      7.35   208.39     0  02:30       0.212        5.44       0.610
  WS02001212           JUNCTION      0.00   216.45     0  02:44           0        5.41       0.290
  WS02001213           JUNCTION      0.00   223.93     0  02:44           0        5.39       0.334
  WS02003059           JUNCTION      0.00   231.40     0  02:44           0        5.38       0.599
  WS02003060           JUNCTION     16.53  1410.40     0  02:30       0.476        10.8       0.142
  WS02003066           JUNCTION      0.00  1207.10     0  02:27           0        4.99       0.034
  WS02003067           JUNCTION      0.00  1205.27     0  02:27           0        4.99       0.096
  WS02003069           JUNCTION      0.32  1406.21     0  02:31     0.00922        10.8       0.149
  WS02003072           JUNCTION      0.00  1404.82     0  02:31           0        10.8       0.200
  WS02003073           JUNCTION      1.82  1406.05     0  02:32      0.0524        10.8       0.209
  WS02004138           JUNCTION      0.00   380.00     0  00:00           0        5.25       0.054
  WS02004139           JUNCTION      0.32   190.32     0  00:32     0.00924        5.26       0.509
  WS02004401           JUNCTION      0.00  1214.16     0  02:26           0        5.11       0.218
  WS02004402           JUNCTION      0.00  1214.87     0  02:26           0         5.1       0.219
  WS02004403           JUNCTION      0.00  1214.99     0  02:26           0        5.08       0.212
  WS02004404           JUNCTION      0.16  1215.99     0  02:26     0.00467        5.08       0.181
  WS02004405           JUNCTION      0.04  1218.21     0  02:26      0.0011        5.07       0.253
  WS02004406           JUNCTION      0.00  1219.81     0  02:26           0        5.06       0.433
  WS02004407           JUNCTION      0.00  1220.05     0  02:26           0        5.04       0.041
  WS02004409           JUNCTION      0.00  1205.12     0  02:27           0        5.03       0.081
  WS02004410           JUNCTION      0.00  1205.32     0  02:27           0        5.03       0.116
  WS02004411           JUNCTION      0.00  1205.49     0  02:27           0        5.02       0.140
  WS02004412           JUNCTION      0.00  1205.36     0  02:27           0        5.02       0.178
  WS02004413           JUNCTION      0.00  1205.15     0  02:27           0        5.01       0.298
  WS02006109           JUNCTION      1.23  1098.95     0  02:27      0.0354           5       0.228
  WS02006110           JUNCTION      0.00  1098.98     0  02:26           0        4.99       0.162
  WS02006111           JUNCTION      0.00  1100.34     0  02:26           0        4.98       0.021
  WS02006112           JUNCTION    117.63  1214.34     0  02:26       0.163        5.14       0.364
  WS02006113           JUNCTION      0.00  1099.20     0  02:26           0        4.98       0.042
  WS02006115           JUNCTION      0.00  1214.39     0  02:26           0        5.12       0.143
  WS02006116           JUNCTION      0.00  1214.68     0  02:26           0        5.11       0.130
  WS02006228           JUNCTION      0.00  1098.04     0  02:30           0        4.97       0.123
  WS02006229           JUNCTION      0.00  1828.69     0  02:26           0        5.56       0.149
  WS02006230           JUNCTION     10.28   748.40     0  02:26       0.296        2.26       0.380
  WS02006231           JUNCTION      0.00   453.19     0  02:27           0        1.86      -0.253
  WS02006232           JUNCTION      0.00   453.34     0  02:28           0        1.86       0.480
  WS02006234           JUNCTION      0.00   453.01     0  02:26           0        1.84      -0.416
  WS02006235           JUNCTION      0.00   401.39     0  02:30           0        1.85       0.540
  WS02006238           JUNCTION      0.00   406.88     0  02:28           0        1.75      -0.348
  WS02006239           JUNCTION      0.00   401.47     0  02:27           0        1.72      -0.269
  WS02006240           JUNCTION      0.00   401.06     0  02:27           0         1.7      -0.008
  WS02006242           JUNCTION      0.00   400.89     0  02:30           0        1.68       0.128
  WS02006243           JUNCTION      0.00   371.48     0  00:05           0        1.56       0.069
  WS02006245           JUNCTION      0.00   383.09     0  00:05           0        1.56       0.713
  WS02006247           JUNCTION      0.00   385.59     0  00:04           0        1.56       0.091
  WS02006248           JUNCTION      0.00   390.96     0  00:04           0        1.62      -0.085
  WS02006249           JUNCTION      0.00  1083.63     0  02:30           0        2.28       0.440
  WS02006251           JUNCTION      0.08  1083.91     0  02:30     0.00222        2.31      -0.042
  WS02006252           JUNCTION      0.00   400.00     0  00:00           0        1.22      -0.024
  WS02006253           JUNCTION     15.96   881.82     0  02:30      0.0193        1.08      -0.036
  WS02006256           JUNCTION      0.00   300.00     0  00:00           0       0.144      -2.207
  WS02006280           JUNCTION      0.00  1824.12     0  02:26           0        3.92       0.017
  WS02006284           JUNCTION      0.10  1820.63     0  02:26     0.00275        3.92       0.021
  WS02006287           JUNCTION      0.00  1814.58     0  02:26           0        3.92       0.022
  WSF200               JUNCTION      0.00  1206.27     0  02:27           0        4.99       0.022
  YS02001580           JUNCTION      0.00   104.91     0  02:26           0     0.00427      -2.134
  YS02001583           JUNCTION      0.00   156.60     0  02:26           0      0.0151      -4.562
  YS02001586           JUNCTION    228.19   243.73     0  02:27       0.491       0.502       0.290
  YS02001590           JUNCTION      0.00   242.86     0  02:27           0       0.489      -0.067
  YS02001593           JUNCTION      0.00   242.16     0  02:27           0       0.489       0.041
  YS02001596           JUNCTION      0.00   240.88     0  02:27           0       0.489      -0.003
  YS02001600           JUNCTION      0.00   241.43     0  02:27           0       0.489       0.006
  YS02001601           JUNCTION    425.25   655.83     0  02:27       0.711         1.2       0.059
  YS02001602           JUNCTION      0.00   522.43     0  02:25           0        1.17       0.024
  YS02001605           JUNCTION      0.00   522.43     0  02:25           0        1.17       0.024
  YS02001607           JUNCTION      0.00   525.30     0  02:25           0        1.17       0.152
  YS02001610           JUNCTION      0.00   528.61     0  02:25           0        1.17       0.192
  YS02001613           JUNCTION      0.00   535.19     0  02:25           0        1.17       0.134
  YS02001616           JUNCTION      0.00   541.55     0  02:25           0        1.17       0.032
  YS02001619           JUNCTION    391.99   910.56     0  02:25       0.738         1.9       0.005
  YS02001622           JUNCTION      0.00   904.05     0  02:26           0         1.9       0.012
  YS02001625           JUNCTION      0.00   906.18     0  02:26           0         1.9       0.476
  YS02001629           JUNCTION      0.00   909.53     0  02:26           0        1.89       0.028
  YS02001633           JUNCTION    323.64  1215.45     0  02:26       0.522        2.42       0.143
  YS02001641           JUNCTION      0.00  1211.18     0  02:26           0        2.41       0.116
  YS02001644           JUNCTION    278.39  1486.97     0  02:26       0.424        2.83       0.118
  YS02001647           JUNCTION      0.00  1493.51     0  02:26           0        2.82       0.001
  YS02001649           JUNCTION      0.00  1764.71     0  02:28           0        3.22       0.186
  YS02001652           JUNCTION      0.00   337.04     0  02:27           0        0.39      -0.324
  YS02001655           JUNCTION      0.15   280.71     0  02:25     0.00443        0.39       0.265
  YS02001658           JUNCTION      0.00   280.06     0  02:25           0       0.386      -0.017
  YS02001661           JUNCTION      0.00   279.37     0  02:25           0       0.386       0.085
  YS02001664           JUNCTION    279.77   279.77     0  02:25       0.386       0.386      -0.007
  YS02001745           JUNCTION    180.83   180.83     0  02:25       0.235       0.235      -0.001
  YS02001748           JUNCTION      0.04   180.55     0  02:25      0.0013       0.236      -0.013
  YS02001751           JUNCTION      0.01   181.29     0  02:25    0.000317       0.237       0.527
  YS02001754           JUNCTION      0.26   197.58     0  02:29     0.00749       0.255      -0.578
  YS02001757           JUNCTION      0.00  2274.49     0  02:29           0        4.34       0.737
  YS02001759           JUNCTION    259.82   487.89     0  02:30       0.339       0.897       0.496
  YS02001762           JUNCTION      0.00   322.02     0  02:30           0       0.559       0.588
  YS02001765           JUNCTION      0.00   302.88     0  02:29           0       0.556       0.477
  YS02001767           JUNCTION      0.54   302.29     0  02:25      0.0154       0.553       0.475
  YS02001770           JUNCTION    354.38   354.38     0  02:25       0.513       0.564       0.331
  YS02001774           JUNCTION      0.00    94.92     0  02:28           0      0.0535       5.891
  YS02001779           JUNCTION      0.01    43.95     0  02:27    0.000144       0.013       0.162
  YS02001783           JUNCTION      0.00   849.72     0  02:28           0        1.57       0.017
  YS02001784           JUNCTION      1.06   849.26     0  02:28      0.0305         1.6       0.031
  YS02001786           JUNCTION      0.06   849.42     0  02:29     0.00162        1.61       0.039
  YS02001788           JUNCTION      0.07   850.11     0  02:29     0.00204        1.61       0.019
  YS02001790           JUNCTION      0.15   852.29     0  02:29     0.00446        1.61       0.027
  YS02001791           JUNCTION      0.00   887.70     0  02:29           0        1.61       0.009
  YS02001793           JUNCTION      0.00   853.17     0  02:29           0        1.61       0.013
  YS02001882           JUNCTION      0.00    16.49     0  02:24           0      0.0104       6.322
  YS02001884           JUNCTION      0.00    43.84     0  02:26           0      0.0418       6.335
  YS02001887           JUNCTION    287.57   287.57     0  02:25       0.368       0.396       1.142
  YS02001890           JUNCTION      0.00   258.35     0  02:25           0        0.36       1.438
  YS02001895           JUNCTION      0.00   238.97     0  02:25           0       0.355       0.351
  YS02001898           JUNCTION      0.00   209.94     0  02:27           0       0.354       0.161
  YS02001901           JUNCTION      0.00   207.70     0  02:28           0       0.356       0.888
  YS02001904           JUNCTION      0.00   215.15     0  02:34           0        0.36       0.816
  YS02001907           JUNCTION      0.00   605.10     0  02:30           0        1.12       1.621
  YS02001910           JUNCTION      0.00   403.48     0  02:30           0       0.771       0.926
  YS02001915           JUNCTION    286.88   390.40     0  02:29       0.441       0.772       0.218
  YS02001918           JUNCTION      0.00   167.41     0  02:29           0       0.332       0.096
  YS02001920           JUNCTION      2.87   157.15     0  02:30      0.0827       0.333       0.319
  YS02001923           JUNCTION      0.04   143.63     0  02:26     0.00109        0.25       0.005
  YS02001926           JUNCTION      0.05   144.29     0  02:26      0.0015        0.25       0.086
  YS02001929           JUNCTION    144.46   144.46     0  02:26       0.248       0.248      -0.004
  YS02006553           JUNCTION      0.00   605.04     0  02:31           0        1.11       1.071
  YS02006556           JUNCTION      0.00   605.01     0  02:30           0        1.12       0.746
  YS02006558           JUNCTION    353.38   849.42     0  02:28       0.505         1.6       0.214
  YS02006561           JUNCTION      0.00   848.58     0  02:28           0        1.57       0.004
  YS02163301           JUNCTION      0.00   894.59     0  02:26           0        1.89       0.079
  YS02163601           JUNCTION      0.11  1215.95     0  02:26     0.00317        2.41       0.202
  YS02164001           JUNCTION      0.00  1215.52     0  02:26           0        2.41       0.101
  YSB1154              JUNCTION    152.26   152.26     0  02:25       0.223       0.224       0.648
  YSB1171              JUNCTION      0.00   288.67     0  02:25           0       0.395       1.625
  YSB1174              JUNCTION    134.98   134.98     0  02:25       0.164       0.164       0.775
  YSB6556              JUNCTION      0.00   152.39     0  02:25           0       0.225       0.534
  CC-1                 OUTFALL       0.00   683.00     0  00:00           0        1.95       0.000
  CC-2                 OUTFALL       0.00   683.00     0  00:00           0       0.206       0.000
  JK-1                 OUTFALL       0.00  1000.00     0  00:00           0        1.38       0.000
  JK-2                 OUTFALL       0.00  1000.00     0  00:00           0      0.0484       0.000
  WSC                  OUTFALL       0.00  1405.57     0  02:32           0        10.8       0.000
  CC-storage           STORAGE       0.00  2147.76     0  02:28           0         6.5       0.177
  JK-storage           STORAGE       0.00   853.05     0  02:29           0        1.76       0.344
  XR-storage           STORAGE     200.00   200.00     0  00:00        5.76        6.36       0.001
  
  
  **********************
  Node Surcharge Summary
  **********************
  
  Surcharging occurs when water rises above the top of the highest conduit.
  ---------------------------------------------------------------------
                                               Max. Height   Min. Depth
                                   Hours       Above Crown    Below Rim
  Node                 Type      Surcharged         Meters       Meters
  ---------------------------------------------------------------------
  HS02004478           JUNCTION        0.02          0.189        0.751
  HS02004479           JUNCTION        0.14          0.585        0.465
  HS02004480           JUNCTION        0.17          0.620        0.480
  HS02004770           JUNCTION        0.11          0.720        0.000
  HS02004777           JUNCTION        0.11          0.780        0.000
  HS02004785           JUNCTION        0.07          0.695        0.095
  HS02004788           JUNCTION        0.06          0.678        0.042
  HS02004792           JUNCTION        0.15          0.900        0.000
  HS02004799           JUNCTION        0.23          0.838        0.222
  HS02004802           JUNCTION        0.18          0.456        0.754
  HS02004807           JUNCTION        0.16          0.620        0.600
  HS02004817           JUNCTION        0.50          0.805        0.935
  HS02004824           JUNCTION        0.05          0.321        0.989
  HS02004830           JUNCTION        0.01          0.098        1.232
  HS02004842           JUNCTION        0.11          0.206        1.314
  HS02004901           JUNCTION        0.12          0.720        0.000
  WS02004401           JUNCTION        0.71          0.687        0.973
  WS02004402           JUNCTION        0.73          0.642        1.098
  WS02004403           JUNCTION        0.73          0.577        1.453
  WS02004404           JUNCTION        0.84          0.596        2.184
  WS02004405           JUNCTION        0.82          0.549        2.251
  WS02004406           JUNCTION        0.80          0.449        2.001
  WS02004409           JUNCTION        0.33          0.282        2.078
  WS02004410           JUNCTION        0.32          0.211        2.329
  WS02004411           JUNCTION        0.30          0.137        2.393
  WS02004412           JUNCTION        0.24          0.056        2.254
  WS02004413           JUNCTION        0.50          0.115        2.085
  WS02006109           JUNCTION        1.21          1.817        0.003
  WS02006110           JUNCTION        0.94          1.413        0.437
  WS02006111           JUNCTION        0.45          0.748        1.122
  WS02006112           JUNCTION        1.03          1.152        0.528
  WS02006113           JUNCTION        0.47          0.898        1.032
  WS02006115           JUNCTION        0.64          0.749        1.501
  WS02006116           JUNCTION        0.65          0.704        1.586
  WS02006228           JUNCTION        1.20          2.079        0.121
  WS02006229           JUNCTION        0.31          0.859        0.211
  WS02006230           JUNCTION        0.80          1.570        0.000
  WS02006231           JUNCTION        0.83          1.484        0.046
  WS02006232           JUNCTION        1.00          1.480        0.000
  WS02006234           JUNCTION        0.85          1.240        0.000
  WS02006235           JUNCTION        0.88          1.266        0.024
  WS02006238           JUNCTION        0.90          1.268        0.162
  WS02006239           JUNCTION        0.84          1.093        0.197
  WS02006240           JUNCTION        0.82          0.950        0.440
  WS02006242           JUNCTION        0.85          0.820        0.000
  WS02006243           JUNCTION        0.76          0.660        0.110
  WS02006245           JUNCTION        0.73          0.560        0.290
  WS02006247           JUNCTION        0.74          0.517        0.243
  WS02006248           JUNCTION        0.69          0.380        0.000
  WS02006249           JUNCTION        0.70          0.390        0.000
  WS02006251           JUNCTION        0.56          0.953        0.227
  WS02006252           JUNCTION        0.69          1.100        0.000
  WS02006253           JUNCTION        0.57          2.480        0.000
  WS02006256           JUNCTION        7.98          2.050        0.000
  WS02006280           JUNCTION        0.25          0.477        0.303
  WS02006284           JUNCTION        0.19          0.344        0.456
  WS02006287           JUNCTION        0.12          0.303        0.587
  YS02001580           JUNCTION        0.01          0.450        0.000
  YS02001583           JUNCTION        0.01          0.411        0.089
  YS02001586           JUNCTION        0.14          0.510        0.000
  YS02001590           JUNCTION        0.20          0.736        0.014
  YS02001593           JUNCTION        0.20          0.706        0.134
  YS02001596           JUNCTION        0.28          0.949        0.121
  YS02001600           JUNCTION        0.36          1.190        0.000
  YS02001601           JUNCTION        0.60          1.440        0.000
  YS02001602           JUNCTION        0.52          1.270        0.000
  YS02001605           JUNCTION        0.48          1.142        0.038
  YS02001607           JUNCTION        0.15          0.557        0.123
  YS02001610           JUNCTION        0.17          0.606        0.074
  YS02001613           JUNCTION        0.15          0.552        0.148
  YS02001616           JUNCTION        0.11          0.462        0.148
  YS02001619           JUNCTION        0.10          0.418        0.192
  YS02001622           JUNCTION        0.09          0.377        0.243
  YS02001625           JUNCTION        0.24          0.661        0.119
  YS02001629           JUNCTION        0.01          0.354        0.116
  YS02001633           JUNCTION        0.24          0.647        0.413
  YS02001641           JUNCTION        0.17          0.309        0.791
  YS02001644           JUNCTION        0.13          0.169        0.751
  YS02001907           JUNCTION        0.22          0.233        0.717
  YS02001910           JUNCTION        0.05          0.034        1.066
  YS02006553           JUNCTION        0.23          0.234        0.956
  YS02006556           JUNCTION        0.16          0.147        1.203
  YS02006558           JUNCTION        0.15          0.121        1.279
  YS02163301           JUNCTION        0.23          0.696        0.334
  YS02163601           JUNCTION        0.27          0.543        0.537
  YS02164001           JUNCTION        0.19          0.386        0.714
  YSB1154              JUNCTION        0.30          0.902        0.498
  YSB1171              JUNCTION        0.30          0.867        0.233
  YSB1174              JUNCTION        0.26          0.824        0.426
  YSB6556              JUNCTION        0.22          0.779        0.321
  
  
  *********************
  Node Flooding Summary
  *********************
  
  Flooding refers to all water that overflows a node, whether it ponds or not.
  --------------------------------------------------------------------------
                                                             Total   Maximum
                                 Maximum   Time of Max       Flood    Ponded
                        Hours       Rate    Occurrence      Volume     Depth
  Node                 Flooded       LPS   days hr:min    10^6 ltr    Meters
  --------------------------------------------------------------------------
  HS02004770              0.01     87.00      0  02:25       0.001     0.000
  HS02004777              0.01     34.99      0  02:25       0.000     0.000
  HS02004792              0.01    150.93      0  02:24       0.000     0.000
  HS02004901              0.01     37.26      0  02:26       0.001     0.000
  WS02006230              0.20    295.81      0  02:26       0.107     0.000
  WS02006232              0.05      0.60      0  02:31       0.000     0.000
  WS02006234              0.23     56.45      0  02:35       0.041     0.000
  WS02006242              0.29    123.39      0  02:25       0.112     0.000
  WS02006248              0.38    338.19      0  02:38       0.379     0.000
  WS02006249              0.54   1031.02      0  02:30       0.977     0.000
  WS02006252              0.01    245.63      0  00:00       0.000     0.000
  WS02006253              0.01    207.07      0  02:20       0.000     0.000
  WS02006256              0.11    293.19      0  00:00       0.018     0.000
  YS02001580              0.01     82.38      0  02:26       0.000     0.000
  YS02001586              0.01     60.42      0  02:26       0.001     0.000
  YS02001600              0.01      1.66      0  02:26       0.000     0.000
  YS02001601              0.09    181.63      0  02:27       0.028     0.000
  YS02001602              0.01      5.65      0  02:26       0.000     0.000
  
  
  **********************
  Storage Volume Summary
  **********************
  
  --------------------------------------------------------------------------------------------------
                         Average     Avg  Evap Exfil       Maximum     Max    Time of Max    Maximum
                          Volume    Pcnt  Pcnt  Pcnt        Volume    Pcnt     Occurrence    Outflow
  Storage Unit           1000 m3    Full  Loss  Loss       1000 m3    Full    days hr:min        LPS
  --------------------------------------------------------------------------------------------------
  CC-storage               2.907      45     0     0         3.823      60       0  02:46    1783.53
  JK-storage               0.139      48     0     0         0.213      73       0  02:28    2300.00
  XR-storage               0.958      67     0     0         1.111      77       0  08:00     380.00
  
  
  ***********************
  Outfall Loading Summary
  ***********************
  
  -----------------------------------------------------------
                         Flow       Avg       Max       Total
                         Freq      Flow      Flow      Volume
  Outfall Node           Pcnt       LPS       LPS    10^6 ltr
  -----------------------------------------------------------
  CC-1                  16.89    683.00    683.00       1.954
  CC-2                   0.60    683.00    683.00       0.206
  JK-1                  10.21    716.32   1000.00       1.377
  JK-2                   0.14   1000.00   1000.00       0.048
  WSC                   99.96    480.31   1405.57      10.790
  -----------------------------------------------------------
  System                25.56   3562.62   1405.57      14.375
  
  
  ********************
  Link Flow Summary
  ********************
  
  -----------------------------------------------------------------------------
                                 Maximum  Time of Max   Maximum    Max/    Max/
                                  |Flow|   Occurrence   |Veloc|    Full    Full
  Link                 Type          LPS  days hr:min     m/sec    Flow   Depth
  -----------------------------------------------------------------------------
  1                    CONDUIT   1405.57     0  02:32      3.64    0.49    0.49
  HS02004478WS02006287 CONDUIT   1814.58     0  02:26      2.59    0.51    1.00
  HS02004479HS02004480 CONDUIT    299.53     0  02:26      0.43    0.29    1.00
  HS02004480HS02004478 CONDUIT   1986.64     0  02:26      2.84    8.37    1.00
  HS02004770HS02004777 CONDUIT    717.30     0  02:25      1.02    1.31    1.00
  HS02004777HS02004785 CONDUIT    728.49     0  02:25      1.08    0.90    1.00
  HS02004785HS02004788 CONDUIT    683.07     0  02:26      1.40    5.15    1.00
  HS02004788HS02004792 CONDUIT    877.17     0  02:26      1.48    0.58    1.00
  HS02004792HS02004799 CONDUIT   1563.02     0  02:26      2.23    0.96    1.00
  HS02004799HS02004480 CONDUIT   1676.56     0  02:26      2.40    2.12    1.00
  HS02004802HS02004478 CONDUIT    351.50     0  02:36      0.72    0.31    1.00
  HS02004807HS02004802 CONDUIT    332.05     0  02:38      0.63    0.63    1.00
  HS02004817HS02004807 CONDUIT    346.51     0  02:26      0.50    0.21    1.00
  HS02004817HS02004824 CONDUIT    348.46     0  02:26      0.55    0.16    1.00
  HS02004824HS02004830 CONDUIT    569.05     0  02:26      0.85    0.74    1.00
  HS02004830HS02004837 CONDUIT    520.25     0  02:26      0.82    0.52    0.94
  HS02004837HS02004842 CONDUIT    573.78     0  02:27      0.88    0.34    0.95
  HS02004842HS02004848 CONDUIT    574.31     0  02:27      0.96    0.33    0.87
  HS02004848HS02004852 CONDUIT    748.98     0  02:27      1.43    0.84    0.75
  HS02004852HS02004856 CONDUIT    737.38     0  02:28      1.35    0.84    0.78
  HS02004856HS02004862 CONDUIT    783.17     0  02:28      1.58    0.78    0.71
  HS02004862HS02004870 CONDUIT    869.69     0  02:28      1.85    0.94    0.67
  HS02004870HS02004876 CONDUIT    923.09     0  02:29      1.83    0.61    0.80
  HS02004876HS02004881 CONDUIT    938.56     0  02:29      2.37    9.98    0.93
  HS02004881HS02006253 CONDUIT    873.29     0  02:30      2.75    0.17    0.94
  HS02004901HS02004770 CONDUIT    139.88     0  02:25      0.20    0.53    1.00
  WS02001211WS02001212 CONDUIT    216.45     0  02:44      0.54    0.17    0.67
  WS02001212WS02001213 CONDUIT    223.93     0  02:44      1.04    0.35    0.54
  WS02001213WS02003059 CONDUIT    231.40     0  02:44      0.47    0.38    0.87
  WS02003059WS02003060 CONDUIT    241.32     0  02:43      0.67    0.16    0.78
  WS02003060WS02003069 CONDUIT   1405.89     0  02:31      2.05    0.55    0.58
  WS02003066WSF200     CONDUIT   1206.27     0  02:27      3.31    0.20    0.36
  WS02003067WS02003066 CONDUIT   1207.10     0  02:27      1.93    0.39    0.54
  WS02003069WS02003072 CONDUIT   1404.82     0  02:31      1.85    0.68    0.64
  WS02003072WS02003073 CONDUIT   1404.23     0  02:32      2.00    3.03    0.60
  WS02004138WS02004139 CONDUIT    190.00     0  00:32      2.15    0.04    0.40
  WS02004139WS02001211 CONDUIT    201.04     0  02:30      0.54    0.25    0.59
  WS02004401WS02004402 CONDUIT   1214.87     0  02:26      1.55    1.46    1.00
  WS02004402WS02004403 CONDUIT   1214.99     0  02:26      1.55    1.75    1.00
  WS02004403WS02004404 CONDUIT   1215.83     0  02:26      1.55    0.88    1.00
  WS02004404WS02004405 CONDUIT   1218.17     0  02:26      1.55   11.93    1.00
  WS02004405WS02004406 CONDUIT   1219.81     0  02:26      1.55    2.41    1.00
  WS02004406WS02004407 CONDUIT   1220.05     0  02:26      1.83    0.55    0.88
  WS02004407WS02004409 CONDUIT   1205.12     0  02:27      1.83    0.43    0.88
  WS02004409WS02004410 CONDUIT   1205.32     0  02:27      1.53    1.56    1.00
  WS02004410WS02004411 CONDUIT   1205.49     0  02:27      1.53    1.65    1.00
  WS02004411WS02004412 CONDUIT   1205.36     0  02:27      1.53    1.71    1.00
  WS02004412WS02004413 CONDUIT   1205.15     0  02:27      1.53    0.81    1.00
  WS02004413WS02003067 CONDUIT   1205.27     0  02:27      1.90    0.52    0.75
  WS02006109WS02006110 CONDUIT   1098.98     0  02:26      2.19    2.11    1.00
  WS02006110WS02006113 CONDUIT   1099.20     0  02:26      2.19    1.00    1.00
  WS02006111WS02006112 CONDUIT   1101.06     0  02:26      2.19    0.52    1.00
  WS02006112WS02006115 CONDUIT   1214.39     0  02:26      1.55    0.72    1.00
  WS02006113WS02006111 CONDUIT   1100.34     0  02:26      2.62    1.32    1.00
  WS02006115WS02006116 CONDUIT   1214.68     0  02:26      1.55    1.56    1.00
  WS02006116WS02004401 CONDUIT   1214.16     0  02:26      1.55    1.67    1.00
  WS02006228WS02006109 CONDUIT   1097.72     0  02:27      2.18    4.80    1.00
  WS02006229WS02006228 CONDUIT   1098.04     0  02:30      2.18    3.64    1.00
  WS02006230WS02006229 CONDUIT    738.12     0  02:26      1.92   16.43    1.00
  WS02006231WS02006230 CONDUIT    453.19     0  02:27      1.18    6.87    1.00
  WS02006232WS02006231 CONDUIT    453.34     0  02:28      1.18    0.95    1.00
  WS02006234WS02006232 CONDUIT    453.01     0  02:26      1.41    0.92    1.00
  WS02006235WS02006234 CONDUIT    398.67     0  02:30      1.23    4.21    1.00
  WS02006238WS02006235 CONDUIT    406.88     0  02:28      1.45    0.91    1.00
  WS02006239WS02006238 CONDUIT    401.47     0  02:27      1.12    1.28    1.00
  WS02006240WS02006239 CONDUIT    401.06     0  02:27      1.26    1.26    1.00
  WS02006242WS02006240 CONDUIT    400.89     0  02:30      1.14    1.59    1.00
  WS02006243WS02006242 CONDUIT    357.32     0  00:05      1.34    0.76    1.00
  WS02006245WS02006243 CONDUIT    371.48     0  00:05      1.39    1.10    1.00
  WS02006247WS02006245 CONDUIT    383.09     0  00:05      1.37    3.04    1.00
  WS02006248WS02006247 CONDUIT    385.59     0  00:04      1.38    0.84    1.00
  WS02006249WS02006248 CONDUIT    390.96     0  00:04      1.38    2.14    1.00
  WS02006251WS02006249 CONDUIT   1083.63     0  02:30      2.82    3.12    1.00
  WS02006252WS02006251 CONDUIT    400.21     0  00:00      3.88    1.47    1.00
  WS02006253WS02006251 CONDUIT    881.63     0  02:30      2.29    2.64    1.00
  WS02006256WS02006235 CONDUIT    288.93     0  00:00      4.23    3.06    1.00
  WS02006280WS02006229 CONDUIT   1828.69     0  02:26      4.59    0.39    1.00
  WS02006284WS02006280 CONDUIT   1824.12     0  02:26      3.01    0.76    1.00
  WS02006287WS02006284 CONDUIT   1820.53     0  02:26      2.77    0.84    1.00
  WSF200WS02003060     CONDUIT   1206.29     0  02:26      2.40    0.27    0.48
  YS02001580YS02001583 CONDUIT    104.91     0  02:26      0.68    0.41    1.00
  YS02001583YS02001586 CONDUIT    141.53     0  02:26      0.65    0.21    1.00
  YS02001586YS02001590 CONDUIT    242.86     0  02:27      1.28    0.43    1.00
  YS02001590YS02001593 CONDUIT    242.16     0  02:27      1.02    1.52    1.00
  YS02001593YS02001596 CONDUIT    240.88     0  02:27      1.67    0.38    1.00
  YS02001596YS02001600 CONDUIT    241.43     0  02:27      1.18    0.47    1.00
  YS02001600YS02001601 CONDUIT    241.98     0  02:27      0.86    0.42    1.00
  YS02001601YS02001602 CONDUIT    522.43     0  02:25      1.85    1.89    1.00
  YS02001602YS02001605 CONDUIT    522.43     0  02:25      1.85   11.06    1.00
  YS02001605YS02001607 CONDUIT    525.30     0  02:25      1.86    2.88    1.00
  YS02001607YS02001610 CONDUIT    528.61     0  02:25      0.67    0.50    1.00
  YS02001610YS02001613 CONDUIT    535.19     0  02:25      0.68    0.62    1.00
  YS02001613YS02001616 CONDUIT    541.55     0  02:25      0.69    0.46    1.00
  YS02001616YS02001619 CONDUIT    520.88     0  02:25      0.70    0.90    1.00
  YS02001619YS02001622 CONDUIT    904.05     0  02:26      1.23    1.33    1.00
  YS02001622YS02001625 CONDUIT    906.18     0  02:26      1.15    0.48    1.00
  YS02001625YS02001629 CONDUIT    909.53     0  02:26      1.16    0.43    1.00
  YS02001629YS02163301 CONDUIT    894.59     0  02:26      1.14    1.10    1.00
  YS02001633YS02163601 CONDUIT   1215.84     0  02:26      1.55    1.28    1.00
  YS02001641YS02001644 CONDUIT   1213.45     0  02:26      1.54    3.92    1.00
  YS02001644YS02001647 CONDUIT   1493.51     0  02:26      2.08    0.88    0.88
  YS02001647YS02001649 CONDUIT   1514.38     0  02:26      2.29    0.80    0.80
  YS02001649YS02001757 CONDUIT   1738.96     0  02:28      2.44    1.06    0.87
  YS02001652YS02001649 CONDUIT    349.02     0  02:28      0.67    0.17    0.76
  YS02001655YS02001652 CONDUIT    337.04     0  02:27      1.37    0.16    0.51
  YS02001658YS02001655 CONDUIT    280.56     0  02:25      1.93    0.12    0.32
  YS02001661YS02001658 CONDUIT    280.06     0  02:25      2.07    0.11    0.23
  YS02001664YS02001661 CONDUIT    279.37     0  02:25      1.85    0.09    0.25
  YS02001745YS02001748 CONDUIT    180.51     0  02:25      1.90    0.07    0.18
  YS02001748YS02001751 CONDUIT    181.28     0  02:25      1.59    0.09    0.23
  YS02001751YS02001754 CONDUIT    197.32     0  02:29      1.52    0.10    0.38
  YS02001754YS02001757 CONDUIT    247.98     0  02:29      0.51    0.10    0.71
  YS02001757CaochengTiaoxuchi CONDUIT   2147.76     0  02:28      2.82    0.93    0.95
  YS02001759YS02001757 CONDUIT    449.88     0  02:29      0.91    0.32    0.85
  YS02001762YS02001759 CONDUIT    320.33     0  02:30      0.58    0.37    0.78
  YS02001765YS02001762 CONDUIT    322.02     0  02:30      0.71    0.30    0.73
  YS02001767YS02001765 CONDUIT    302.88     0  02:29      0.81    0.38    0.69
  YS02001770YS02001767 CONDUIT    301.75     0  02:25      0.83    1.20    0.68
  YS02001774YS02001770 CONDUIT     94.92     0  02:28      0.17    0.06    0.70
  YS02001779YS02001774 CONDUIT     43.94     0  02:27      0.10    0.02    0.63
  YS02001783YS02001784 CONDUIT    848.20     0  02:28      1.71    1.17    0.96
  YS02001784YS02001785 CONDUIT    849.36     0  02:29      1.85    1.98    0.86
  YS02001786YS02001788 CONDUIT    850.04     0  02:29      2.28    1.64    0.69
  YS02001788YS02001790 CONDUIT    852.14     0  02:29      2.39    0.63    0.67
  YS02001790YS02001791 CONDUIT    887.70     0  02:29      2.95    0.97    0.58
  YS02001791YS02001793 CONDUIT    853.17     0  02:29      5.97    0.37    0.33
  YS02001793JiankangQianchi CONDUIT    853.05     0  02:29      1.78    0.07    0.59
  YS02001882YS02001884 CONDUIT     16.49     0  02:24      0.05    0.02    0.83
  YS02001884YS02001887 CONDUIT     43.84     0  02:26      0.06    0.06    0.93
  YS02001887YS02001890 CONDUIT    258.35     0  02:25      0.36    0.44    0.99
  YS02001890YS02001895 CONDUIT    238.97     0  02:25      0.36    0.11    0.89
  YS02001895YS02001898 CONDUIT    209.94     0  02:27      0.39    0.36    0.77
  YS02001898YS02001901 CONDUIT    207.70     0  02:28      0.36    0.13    0.85
  YS02001901YS02001904 CONDUIT    215.15     0  02:34      0.36    0.33    0.91
  YS02001904YS02001907 CONDUIT    232.14     0  02:34      0.32    0.08    0.95
  YS02001907YS02006553 CONDUIT    605.04     0  02:31      0.67    0.71    1.00
  YS02001910YS02001907 CONDUIT    405.02     0  02:30      0.52    0.23    1.00
  YS02001915YS02001910 CONDUIT    403.48     0  02:30      0.54    0.20    0.91
  YS02001918YS02001915 CONDUIT    177.13     0  02:32      0.46    0.10    0.65
  YS02001920YS02001918 CONDUIT    167.41     0  02:29      0.65    0.16    0.51
  YS02001923YS02001920 CONDUIT    154.28     0  02:30      0.74    0.07    0.41
  YS02001926YS02001923 CONDUIT    143.60     0  02:26      0.88    0.21    0.26
  YS02001929YS02001926 CONDUIT    144.23     0  02:26      0.97    0.07    0.24
  YS02006553YS02006556 CONDUIT    605.01     0  02:30      0.77    0.52    1.00
  YS02006556YS02006558 CONDUIT    606.13     0  02:30      0.77    0.48    1.00
  YS02006558YS02006561 CONDUIT    848.58     0  02:28      3.36    1.88    0.84
  YS02006561YS02001783 CONDUIT    849.72     0  02:28      2.15    0.44    0.74
  YS02163301YS02001633 CONDUIT    896.89     0  02:26      1.14    0.84    1.00
  YS02163601YS02164001 CONDUIT   1215.52     0  02:26      1.55    1.08    1.00
  YS02164001YS02001641 CONDUIT   1211.18     0  02:26      1.54    1.65    1.00
  YSB1154YSB6556       CONDUIT    152.39     0  02:25      0.40    0.27    1.00
  YSB1171HS02004479    CONDUIT    289.51     0  02:26      0.58    0.19    1.00
  YSB1174YSB1171       CONDUIT    135.27     0  02:25      0.35    0.21    1.00
  YSB6556YSB1171       CONDUIT    157.22     0  02:26      0.41    0.16    1.00
  CC-R1                PUMP       683.00     0  00:00              1.00
  CC-R2                PUMP       683.00     0  00:00              1.00
  CC-S1                PUMP       200.00     0  00:00              1.00
  CC-S2                PUMP       200.00     0  00:00              1.00
  JK-R1                PUMP      1000.00     0  00:00              1.00
  JK-R2                PUMP      1000.00     0  00:00              1.00
  JK-S                 PUMP       300.00     0  00:00              1.00
  XR-1                 PUMP        95.00     0  00:00              1.00
  XR-2                 PUMP        95.00     0  00:00              1.00
  XR-3                 PUMP        95.00     0  00:00              1.00
  XR-4                 PUMP        95.00     0  00:00              1.00
  
  
  ***************************
  Flow Classification Summary
  ***************************
  
  -------------------------------------------------------------------------------------
                      Adjusted    ---------- Fraction of Time in Flow Class ---------- 
                       /Actual         Up    Down  Sub   Sup   Up    Down  Norm  Inlet 
  Conduit               Length    Dry  Dry   Dry   Crit  Crit  Crit  Crit  Ltd   Ctrl  
  -------------------------------------------------------------------------------------
  1                       1.00   0.00  0.00  0.00  0.00  1.00  0.00  0.00  0.37  0.00
  HS02004478WS02006287    1.00   0.12  0.00  0.00  0.62  0.26  0.00  0.00  0.66  0.00
  HS02004479HS02004480    1.00   0.03  0.00  0.00  0.97  0.00  0.00  0.00  0.13  0.00
  HS02004480HS02004478    1.00   0.09  0.00  0.00  0.51  0.00  0.00  0.40  0.00  0.00
  HS02004770HS02004777    1.00   0.00  0.09  0.00  0.91  0.00  0.00  0.00  0.04  0.00
  HS02004777HS02004785    1.00   0.00  0.00  0.00  1.00  0.00  0.00  0.00  0.16  0.00
  HS02004785HS02004788    1.00   0.00  0.00  0.00  1.00  0.00  0.00  0.00  0.00  0.00
  HS02004788HS02004792    1.00   0.00  0.00  0.00  0.99  0.01  0.00  0.00  0.96  0.00
  HS02004792HS02004799    1.00   0.00  0.00  0.00  0.99  0.01  0.00  0.00  0.94  0.00
  HS02004799HS02004480    1.00   0.00  0.02  0.00  0.88  0.00  0.10  0.00  0.00  0.00
  HS02004802HS02004478    1.00   0.09  0.01  0.00  0.90  0.00  0.00  0.00  0.03  0.00
  HS02004807HS02004802    1.00   0.09  0.00  0.00  0.90  0.00  0.00  0.01  0.00  0.00
  HS02004817HS02004807    1.00   0.00  0.09  0.00  0.91  0.00  0.00  0.00  0.01  0.00
  HS02004817HS02004824    1.00   0.00  0.00  0.00  1.00  0.00  0.00  0.00  0.91  0.00
  HS02004824HS02004830    1.00   0.00  0.00  0.00  1.00  0.00  0.00  0.00  0.01  0.00
  HS02004830HS02004837    1.00   0.00  0.00  0.00  1.00  0.00  0.00  0.00  0.95  0.00
  HS02004837HS02004842    1.00   0.00  0.00  0.00  1.00  0.00  0.00  0.00  0.11  0.00
  HS02004842HS02004848    1.00   0.00  0.09  0.00  0.91  0.00  0.00  0.00  0.64  0.00
  HS02004848HS02004852    1.00   0.09  0.00  0.00  0.91  0.00  0.00  0.00  0.69  0.00
  HS02004852HS02004856    1.00   0.09  0.01  0.00  0.90  0.00  0.00  0.00  0.77  0.00
  HS02004856HS02004862    1.00   0.00  0.14  0.00  0.86  0.00  0.00  0.00  0.77  0.00
  HS02004862HS02004870    1.00   0.00  0.00  0.00  1.00  0.00  0.00  0.00  0.06  0.00
  HS02004870HS02004876    1.00   0.00  0.00  0.00  0.99  0.01  0.00  0.00  0.92  0.00
  HS02004876HS02004881    1.00   0.01  0.00  0.00  0.82  0.17  0.00  0.00  0.00  0.00
  HS02004881HS02006253    1.00   0.03  0.01  0.00  0.38  0.02  0.00  0.57  0.17  0.00
  HS02004901HS02004770    1.00   0.09  0.00  0.00  0.91  0.00  0.00  0.00  0.01  0.00
  WS02001211WS02001212    1.00   0.00  0.02  0.00  0.98  0.00  0.00  0.00  0.00  0.00
  WS02001212WS02001213    1.00   0.02  0.00  0.00  0.35  0.00  0.63  0.00  0.00  0.00
  WS02001213WS02003059    1.00   0.00  0.00  0.00  1.00  0.00  0.00  0.00  0.00  0.00
  WS02003059WS02003060    1.00   0.00  0.00  0.00  1.00  0.00  0.00  0.00  0.03  0.00
  WS02003060WS02003069    1.00   0.00  0.00  0.00  0.99  0.01  0.00  0.00  0.53  0.00
  WS02003066WSF200        1.00   0.08  0.00  0.00  0.00  0.92  0.00  0.00  0.74  0.00
  WS02003067WS02003066    1.00   0.07  0.01  0.00  0.92  0.00  0.00  0.00  0.00  0.00
  WS02003069WS02003072    1.00   0.00  0.00  0.00  1.00  0.00  0.00  0.00  0.74  0.00
  WS02003072WS02003073    1.00   0.00  0.00  0.00  0.00  0.00  0.00  1.00  0.00  0.00
  WS02004138WS02004139    1.00   0.00  0.00  0.00  0.98  0.00  0.00  0.01  0.98  0.00
  WS02004139WS02001211    1.00   0.00  0.00  0.00  1.00  0.00  0.00  0.00  0.00  0.00
  WS02004401WS02004402    1.00   0.02  0.00  0.00  0.98  0.00  0.00  0.00  0.00  0.00
  WS02004402WS02004403    1.00   0.02  0.00  0.00  0.98  0.00  0.00  0.00  0.00  0.00
  WS02004403WS02004404    1.00   0.00  0.02  0.00  0.98  0.00  0.00  0.00  0.00  0.00
  WS02004404WS02004405    1.00   0.00  0.00  0.00  1.00  0.00  0.00  0.00  0.01  0.00
  WS02004405WS02004406    1.00   0.00  0.00  0.00  1.00  0.00  0.00  0.00  0.00  0.00
  WS02004406WS02004407    1.00   0.00  0.03  0.00  0.97  0.00  0.00  0.00  0.00  0.00
  WS02004407WS02004409    1.00   0.03  0.00  0.00  0.96  0.01  0.00  0.00  0.90  0.00
  WS02004409WS02004410    1.00   0.03  0.00  0.00  0.97  0.00  0.00  0.00  0.02  0.00
  WS02004410WS02004411    1.00   0.03  0.00  0.00  0.97  0.00  0.00  0.00  0.00  0.00
  WS02004411WS02004412    1.00   0.04  0.00  0.00  0.96  0.00  0.00  0.00  0.00  0.00
  WS02004412WS02004413    1.00   0.04  0.00  0.00  0.96  0.00  0.00  0.00  0.01  0.00
  WS02004413WS02003067    1.00   0.04  0.03  0.00  0.00  0.00  0.93  0.00  0.00  0.00
  WS02006109WS02006110    1.00   0.00  0.01  0.00  0.99  0.00  0.01  0.00  0.00  0.00
  WS02006110WS02006113    1.00   0.01  0.01  0.00  0.99  0.00  0.00  0.00  0.00  0.00
  WS02006111WS02006112    1.00   0.01  0.00  0.00  0.98  0.00  0.00  0.00  0.88  0.00
  WS02006112WS02006115    1.00   0.01  0.00  0.00  0.98  0.00  0.00  0.00  0.00  0.00
  WS02006113WS02006111    1.00   0.01  0.00  0.00  0.12  0.87  0.00  0.00  0.07  0.00
  WS02006115WS02006116    1.00   0.02  0.00  0.00  0.98  0.00  0.00  0.00  0.00  0.00
  WS02006116WS02004401    1.00   0.02  0.00  0.00  0.98  0.00  0.00  0.00  0.00  0.00
  WS02006228WS02006109    1.00   0.00  0.00  0.00  1.00  0.00  0.00  0.00  0.00  0.00
  WS02006229WS02006228    1.00   0.00  0.00  0.00  0.99  0.00  0.00  0.00  0.00  0.00
  WS02006230WS02006229    1.00   0.00  0.00  0.00  0.99  0.00  0.00  0.01  0.00  0.00
  WS02006231WS02006230    1.00   0.00  0.00  0.00  0.33  0.00  0.67  0.00  0.00  0.00
  WS02006232WS02006231    1.00   0.00  0.00  0.00  0.99  0.00  0.00  0.00  0.00  0.00
  WS02006234WS02006232    1.00   0.00  0.00  0.00  1.00  0.00  0.00  0.00  0.00  0.00
  WS02006235WS02006234    1.00   0.00  0.00  0.00  0.79  0.00  0.21  0.00  0.00  0.00
  WS02006238WS02006235    1.00   0.00  0.00  0.00  1.00  0.00  0.00  0.00  0.00  0.00
  WS02006239WS02006238    1.00   0.00  0.00  0.00  1.00  0.00  0.00  0.00  0.04  0.00
  WS02006240WS02006239    1.00   0.00  0.00  0.00  0.60  0.00  0.00  0.40  0.01  0.00
  WS02006242WS02006240    1.00   0.00  0.00  0.00  0.98  0.00  0.02  0.00  0.00  0.00
  WS02006243WS02006242    1.00   0.00  0.00  0.00  0.99  0.00  0.00  0.01  0.72  0.00
  WS02006245WS02006243    1.00   0.00  0.00  0.00  0.92  0.00  0.00  0.08  0.00  0.00
  WS02006247WS02006245    1.00   0.00  0.00  0.00  0.97  0.00  0.00  0.03  0.00  0.00
  WS02006248WS02006247    1.00   0.00  0.00  0.00  0.99  0.00  0.00  0.01  0.73  0.00
  WS02006249WS02006248    1.00   0.00  0.00  0.00  0.47  0.00  0.53  0.00  0.00  0.00
  WS02006251WS02006249    1.00   0.00  0.00  0.00  1.00  0.00  0.00  0.00  0.72  0.00
  WS02006252WS02006251    1.00   0.00  0.01  0.00  0.10  0.00  0.88  0.00  0.00  0.00
  WS02006253WS02006251    1.00   0.00  0.00  0.00  1.00  0.00  0.00  0.00  0.00  0.00
  WS02006256WS02006235    1.00   0.00  0.00  0.00  1.00  0.00  0.00  0.00  0.00  0.00
  WS02006280WS02006229    1.00   0.09  0.00  0.00  0.06  0.04  0.00  0.81  0.01  0.00
  WS02006284WS02006280    1.00   0.09  0.00  0.00  0.05  0.01  0.00  0.85  0.00  0.00
  WS02006287WS02006284    1.00   0.07  0.05  0.00  0.46  0.42  0.00  0.00  0.71  0.00
  WSF200WS02003060        1.00   0.00  0.08  0.00  0.63  0.28  0.00  0.00  0.68  0.00
  YS02001580YS02001583    1.00   0.24  0.52  0.00  0.23  0.00  0.00  0.00  0.67  0.00
  YS02001583YS02001586    1.00   0.38  0.29  0.00  0.33  0.00  0.00  0.00  0.68  0.00
  YS02001586YS02001590    1.00   0.09  0.00  0.00  0.48  0.03  0.00  0.40  0.34  0.00
  YS02001590YS02001593    1.00   0.09  0.01  0.00  0.05  0.00  0.86  0.00  0.00  0.00
  YS02001593YS02001596    1.00   0.10  0.00  0.00  0.06  0.01  0.00  0.84  0.01  0.00
  YS02001596YS02001600    1.00   0.10  0.00  0.00  0.13  0.03  0.00  0.74  0.04  0.00
  YS02001600YS02001601    1.00   0.09  0.01  0.00  0.90  0.00  0.00  0.00  0.69  0.00
  YS02001601YS02001602    1.00   0.09  0.01  0.00  0.90  0.00  0.00  0.00  0.00  0.00
  YS02001602YS02001605    1.00   0.10  0.00  0.00  0.90  0.00  0.00  0.00  0.00  0.00
  YS02001605YS02001607    1.00   0.10  0.00  0.00  0.90  0.00  0.00  0.00  0.00  0.00
  YS02001607YS02001610    1.00   0.09  0.01  0.00  0.90  0.00  0.00  0.00  0.03  0.00
  YS02001610YS02001613    1.00   0.09  0.00  0.00  0.91  0.00  0.00  0.00  0.02  0.00
  YS02001613YS02001616    1.00   0.09  0.00  0.00  0.91  0.00  0.00  0.00  0.01  0.00
  YS02001616YS02001619    1.00   0.09  0.00  0.00  0.91  0.00  0.00  0.00  0.00  0.00
  YS02001619YS02001622    1.00   0.09  0.00  0.00  0.91  0.00  0.00  0.00  0.37  0.00
  YS02001622YS02001625    1.00   0.09  0.00  0.00  0.91  0.00  0.00  0.00  0.09  0.00
  YS02001625YS02001629    1.00   0.09  0.06  0.00  0.08  0.00  0.77  0.00  0.00  0.00
  YS02001629YS02163301    1.00   0.12  0.01  0.00  0.86  0.00  0.00  0.00  0.00  0.00
  YS02001633YS02163601    1.00   0.00  0.00  0.00  1.00  0.00  0.00  0.00  0.17  0.00
  YS02001641YS02001644    1.00   0.00  0.00  0.00  1.00  0.00  0.00  0.00  0.00  0.00
  YS02001644YS02001647    1.00   0.00  0.15  0.00  0.85  0.00  0.00  0.00  0.00  0.00
  YS02001647YS02001649    1.00   0.00  0.15  0.00  0.80  0.05  0.00  0.00  0.62  0.00
  YS02001649YS02001757    1.00   0.00  0.00  0.00  0.93  0.07  0.00  0.00  0.23  0.00
  YS02001652YS02001649    1.00   0.00  0.00  0.00  0.97  0.03  0.00  0.00  0.26  0.00
  YS02001655YS02001652    1.00   0.00  0.00  0.00  0.43  0.09  0.00  0.48  0.27  0.00
  YS02001658YS02001655    1.00   0.00  0.11  0.00  0.53  0.36  0.00  0.00  0.80  0.00
  YS02001661YS02001658    1.00   0.11  0.00  0.00  0.37  0.53  0.00  0.00  0.75  0.00
  YS02001664YS02001661    1.00   0.09  0.00  0.00  0.83  0.09  0.00  0.00  0.87  0.00
  YS02001745YS02001748    1.00   0.00  0.00  0.00  0.00  0.00  0.00  1.00  0.00  0.00
  YS02001748YS02001751    1.00   0.00  0.00  0.00  0.68  0.32  0.00  0.00  0.87  0.00
  YS02001751YS02001754    1.00   0.00  0.00  0.00  0.18  0.03  0.00  0.79  0.09  0.00
  YS02001754YS02001757    1.00   0.00  0.00  0.00  1.00  0.00  0.00  0.00  0.45  0.00
  YS02001757CaochengTiaoxuchi    1.00   0.00  0.00  0.00  1.00  0.00  0.00  0.00  0.29  0.00
  YS02001759YS02001757    1.00   0.00  0.00  0.00  1.00  0.00  0.00  0.00  0.11  0.00
  YS02001762YS02001759    1.00   0.00  0.00  0.00  1.00  0.00  0.00  0.00  0.08  0.00
  YS02001765YS02001762    1.00   0.00  0.00  0.00  1.00  0.00  0.00  0.00  0.22  0.00
  YS02001767YS02001765    1.00   0.00  0.00  0.00  1.00  0.00  0.00  0.00  0.00  0.00
  YS02001770YS02001767    1.00   0.00  0.00  0.00  1.00  0.00  0.00  0.00  0.00  0.00
  YS02001774YS02001770    1.00   0.00  0.10  0.00  0.90  0.00  0.00  0.00  0.06  0.00
  YS02001779YS02001774    1.00   0.00  0.00  0.00  1.00  0.00  0.00  0.00  0.84  0.00
  YS02001783YS02001784    1.00   0.00  0.16  0.00  0.84  0.00  0.00  0.00  0.59  0.00
  YS02001784YS02001785    1.00   0.00  0.00  0.00  1.00  0.00  0.00  0.00  0.22  0.00
  YS02001786YS02001788    1.00   0.00  0.00  0.00  0.69  0.31  0.00  0.00  0.00  0.00
  YS02001788YS02001790    1.00   0.00  0.00  0.00  0.16  0.84  0.00  0.00  0.90  0.00
  YS02001790YS02001791    1.00   0.00  0.00  0.00  0.01  0.99  0.00  0.00  0.13  0.00
  YS02001791YS02001793    1.00   0.00  0.00  0.00  0.00  1.00  0.00  0.00  0.00  0.00
  YS02001793JiankangQianchi    1.00   0.00  0.00  0.00  1.00  0.00  0.00  0.00  1.00  0.00
  YS02001882YS02001884    1.00   0.12  0.01  0.00  0.87  0.00  0.00  0.00  0.00  0.00
  YS02001884YS02001887    1.00   0.04  0.04  0.00  0.92  0.00  0.00  0.00  0.00  0.00
  YS02001887YS02001890    1.00   0.00  0.00  0.00  0.98  0.00  0.02  0.00  0.00  0.00
  YS02001890YS02001895    1.00   0.00  0.14  0.00  0.86  0.00  0.00  0.00  0.00  0.00
  YS02001895YS02001898    1.00   0.14  0.00  0.00  0.84  0.00  0.01  0.00  0.00  0.00
  YS02001898YS02001901    1.00   0.13  0.01  0.00  0.85  0.00  0.00  0.00  0.01  0.00
  YS02001901YS02001904    1.00   0.13  0.00  0.00  0.87  0.00  0.00  0.00  0.00  0.00
  YS02001904YS02001907    1.00   0.00  0.13  0.00  0.87  0.00  0.00  0.00  0.00  0.00
  YS02001907YS02006553    1.00   0.00  0.01  0.00  0.98  0.00  0.00  0.00  0.00  0.00
  YS02001910YS02001907    1.00   0.00  0.00  0.00  0.98  0.00  0.00  0.02  0.13  0.00
  YS02001915YS02001910    1.00   0.00  0.00  0.00  0.98  0.02  0.00  0.00  0.21  0.00
  YS02001918YS02001915    1.00   0.00  0.00  0.00  0.98  0.01  0.00  0.00  0.82  0.00
  YS02001920YS02001918    1.00   0.00  0.00  0.00  1.00  0.00  0.00  0.00  0.00  0.00
  YS02001923YS02001920    1.00   0.00  0.00  0.00  1.00  0.00  0.00  0.00  0.99  0.00
  YS02001926YS02001923    1.00   0.00  0.05  0.00  0.00  0.00  0.95  0.00  0.00  0.00
  YS02001929YS02001926    1.00   0.00  0.09  0.00  0.91  0.00  0.00  0.00  0.87  0.00
  YS02006553YS02006556    1.00   0.01  0.00  0.00  0.99  0.00  0.00  0.00  0.03  0.00
  YS02006556YS02006558    1.00   0.00  0.00  0.00  1.00  0.00  0.00  0.00  0.00  0.00
  YS02006558YS02006561    1.00   0.15  0.00  0.00  0.00  0.84  0.00  0.00  0.17  0.00
  YS02006561YS02001783    1.00   0.16  0.00  0.00  0.03  0.82  0.00  0.00  0.72  0.00
  YS02163301YS02001633    1.00   0.00  0.12  0.00  0.88  0.00  0.00  0.00  0.00  0.00
  YS02163601YS02164001    1.00   0.00  0.05  0.00  0.95  0.00  0.00  0.00  0.00  0.00
  YS02164001YS02001641    1.00   0.00  0.05  0.00  0.95  0.00  0.00  0.00  0.06  0.00
  YSB1154YSB6556          1.00   0.08  0.00  0.00  0.92  0.00  0.00  0.00  0.02  0.00
  YSB1171HS02004479       1.00   0.03  0.00  0.00  0.96  0.00  0.00  0.01  0.11  0.00
  YSB1174YSB1171          1.00   0.03  0.03  0.00  0.94  0.00  0.00  0.00  0.00  0.00
  YSB6556YSB1171          1.00   0.03  0.06  0.00  0.92  0.00  0.00  0.00  0.00  0.00
  
  
  *************************
  Conduit Surcharge Summary
  *************************
  
  ----------------------------------------------------------------------------
                                                           Hours        Hours 
                         --------- Hours Full --------   Above Full   Capacity
  Conduit                Both Ends  Upstream  Dnstream   Normal Flow   Limited
  ----------------------------------------------------------------------------
  HS02004478WS02006287        0.02      0.02      0.17      0.01         0.01
  HS02004479HS02004480        0.18      0.18      0.20      0.01         0.01
  HS02004480HS02004478        0.12      0.17      0.12      0.95         0.12
  HS02004770HS02004777        0.11      0.11      0.11      0.09         0.05
  HS02004777HS02004785        0.07      0.07      0.11      0.01         0.01
  HS02004785HS02004788        0.06      0.07      0.06      0.65         0.06
  HS02004788HS02004792        0.06      0.06      0.15      0.01         0.01
  HS02004792HS02004799        0.15      0.15      0.23      0.01         0.01
  HS02004799HS02004480        0.17      0.17      0.23      0.28         0.01
  HS02004802HS02004478        0.13      0.13      0.18      0.01         0.01
  HS02004807HS02004802        0.16      0.16      0.18      0.01         0.01
  HS02004817HS02004807        0.16      0.16      0.50      0.01         0.01
  HS02004817HS02004824        0.05      0.05      0.50      0.01         0.01
  HS02004824HS02004830        0.01      0.01      0.05      0.01         0.01
  HS02004830HS02004837        0.01      0.01      0.01      0.01         0.01
  HS02004837HS02004842        0.01      0.01      0.11      0.01         0.01
  HS02004842HS02004848        0.01      0.01      0.11      0.01         0.01
  HS02004876HS02004881        0.01      0.01      0.01      0.65         0.01
  HS02004881HS02006253        0.01      0.01      0.57      0.01         0.01
  HS02004901HS02004770        0.11      0.11      0.12      0.01         0.01
  WS02003072WS02003073        0.01      0.01      0.01      1.46         0.01
  WS02004401WS02004402        0.71      0.71      0.73      0.57         0.57
  WS02004402WS02004403        0.73      0.73      0.73      0.70         0.69
  WS02004403WS02004404        0.73      0.73      0.84      0.01         0.01
  WS02004404WS02004405        0.82      0.84      0.82      2.26         0.82
  WS02004405WS02004406        0.80      0.82      0.80      1.00         0.80
  WS02004406WS02004407        0.01      0.01      0.80      0.01         0.01
  WS02004407WS02004409        0.01      0.01      0.33      0.01         0.01
  WS02004409WS02004410        0.32      0.33      0.32      0.63         0.32
  WS02004410WS02004411        0.30      0.32      0.30      0.67         0.30
  WS02004411WS02004412        0.24      0.30      0.24      0.70         0.24
  WS02004412WS02004413        0.24      0.24      0.50      0.01         0.01
  WS02004413WS02003067        0.01      0.01      0.50      0.01         0.01
  WS02006109WS02006110        0.94      0.94      1.26      0.95         0.01
  WS02006110WS02006113        0.47      0.47      1.24      0.01         0.01
  WS02006111WS02006112        0.45      0.45      1.39      0.01         0.01
  WS02006112WS02006115        0.64      0.64      1.03      0.01         0.01
  WS02006113WS02006111        0.46      0.47      0.46      0.53         0.46
  WS02006115WS02006116        0.65      0.65      0.65      0.62         0.61
  WS02006116WS02004401        0.70      0.70      0.71      0.68         0.67
  WS02006228WS02006109        1.21      1.26      1.21      1.65         1.21
  WS02006229WS02006228        1.20      1.22      1.20      1.36         1.20
  WS02006230WS02006229        1.29      1.30      1.29      2.64         0.78
  WS02006231WS02006230        0.80      0.80      0.84      2.01         0.36
  WS02006232WS02006231        0.83      0.83      1.00      0.01         0.04
  WS02006234WS02006232        0.88      0.88      1.00      0.01         0.01
  WS02006235WS02006234        0.85      0.85      0.88      1.66         0.35
  WS02006238WS02006235        0.90      0.90      0.93      0.01         0.10
  WS02006239WS02006238        0.89      0.89      0.90      0.27         0.01
  WS02006240WS02006239        0.83      0.83      0.84      0.27         0.01
  WS02006242WS02006240        0.82      0.82      0.89      0.77         0.29
  WS02006243WS02006242        0.77      0.77      0.85      0.01         0.01
  WS02006245WS02006243        0.74      0.74      0.76      0.04         0.01
  WS02006247WS02006245        0.73      0.75      0.73      1.42         0.38
  WS02006248WS02006247        0.70      0.70      0.74      0.01         0.01
  WS02006249WS02006248        0.68      0.69      0.70      0.93         0.01
  WS02006251WS02006249        0.68      0.68      0.70      0.46         0.38
  WS02006252WS02006251        0.64      0.64      0.69      0.08         0.01
  WS02006253WS02006251        0.68      0.68      0.69      0.27         0.01
  WS02006256WS02006235        2.03      2.04      7.98      0.12         0.01
  WS02006280WS02006229        0.26      0.26      0.31      0.01         0.01
  WS02006284WS02006280        0.19      0.19      0.25      0.01         0.01
  WS02006287WS02006284        0.12      0.12      0.20      0.01         0.01
  YS02001580YS02001583        0.01      0.01      0.02      0.01         0.01
  YS02001583YS02001586        0.01      0.01      0.14      0.01         0.01
  YS02001586YS02001590        0.15      0.15      0.20      0.01         0.01
  YS02001590YS02001593        0.20      0.20      0.21      0.20         0.01
  YS02001593YS02001596        0.21      0.21      0.28      0.01         0.01
  YS02001596YS02001600        0.31      0.31      0.36      0.01         0.01
  YS02001600YS02001601        0.40      0.40      0.60      0.01         0.01
  YS02001601YS02001602        0.52      0.52      0.64      0.37         0.01
  YS02001602YS02001605        0.48      0.48      0.52      1.42         0.01
  YS02001605YS02001607        0.45      0.48      0.45      0.57         0.45
  YS02001607YS02001610        0.15      0.15      0.17      0.01         0.01
  YS02001610YS02001613        0.15      0.15      0.17      0.01         0.01
  YS02001613YS02001616        0.11      0.11      0.15      0.01         0.01
  YS02001616YS02001619        0.10      0.10      0.11      0.01         0.01
  YS02001619YS02001622        0.09      0.10      0.09      0.22         0.09
  YS02001622YS02001625        0.09      0.09      0.24      0.01         0.01
  YS02001625YS02001629        0.01      0.01      0.24      0.01         0.01
  YS02001629YS02163301        0.23      0.23      0.23      0.13         0.11
  YS02001633YS02163601        0.24      0.24      0.27      0.16         0.15
  YS02001641YS02001644        0.13      0.17      0.13      0.69         0.13
  YS02001644YS02001647        0.01      0.01      0.13      0.01         0.01
  YS02001649YS02001757        0.01      0.01      0.01      0.02         0.01
  YS02001757CaochengTiaoxuchi        0.01      0.01      5.56      0.01         0.01
  YS02001770YS02001767        0.01      0.01      0.01      0.09         0.01
  YS02001783YS02001784        0.01      0.01      0.01      0.18         0.01
  YS02001784YS02001785        0.01      0.01      0.01      0.32         0.01
  YS02001786YS02001788        0.01      0.01      0.01      0.24         0.01
  YS02001793JiankangQianchi        0.01      0.01      7.70      0.01         0.01
  YS02001890YS02001895        0.01      0.01      0.06      0.01         0.01
  YS02001904YS02001907        0.01      0.01      0.23      0.01         0.01
  YS02001907YS02006553        0.32      0.32      0.36      0.01         0.01
  YS02001910YS02001907        0.05      0.05      0.22      0.01         0.01
  YS02001915YS02001910        0.01      0.01      0.05      0.01         0.01
  YS02006553YS02006556        0.16      0.16      0.23      0.01         0.01
  YS02006556YS02006558        0.20      0.20      0.25      0.01         0.01
  YS02006558YS02006561        0.01      0.15      0.01      0.29         0.01
  YS02163301YS02001633        0.23      0.23      0.26      0.01         0.01
  YS02163601YS02164001        0.19      0.19      0.27      0.06         0.01
  YS02164001YS02001641        0.17      0.19      0.17      0.30         0.17
  YSB1154YSB6556              0.22      0.22      0.30      0.01         0.01
  YSB1171HS02004479           0.14      0.14      0.30      0.01         0.01
  YSB1174YSB1171              0.26      0.26      0.44      0.01         0.01
  YSB6556YSB1171              0.22      0.22      0.55      0.01         0.01
  
  
  ***************
  Pumping Summary
  ***************
  
  ---------------------------------------------------------------------------------------------------------
                                                  Min       Avg       Max     Total     Power    % Time Off
                        Percent   Number of      Flow      Flow      Flow    Volume     Usage    Pump Curve
  Pump                 Utilized   Start-Ups       LPS       LPS       LPS  10^6 ltr     Kw-hr    Low   High
  ---------------------------------------------------------------------------------------------------------
  CC-R1                    9.94           3      0.00    683.00    683.00     1.954     35.82    0.0   10.5
  CC-R2                    1.04           1      0.00    683.00    683.00     0.205      3.46    0.0  100.0
  CC-S1                   96.88           3      0.00     18.45    200.00     0.293      1.76    0.0    0.0
  CC-S2                   92.41           9      0.00     69.81    200.00     0.927      5.16    0.0    0.0
  JK-R1                    5.81          10      0.00    716.32   1000.00     1.376     15.27    0.0    0.0
  JK-R2                    0.16           1      0.00   1000.00   1000.00     0.047      0.36    0.0    0.0
  JK-S                    24.34           9      0.00     10.21    300.00     0.143      2.02    0.0    0.0
  XR-1                    97.91           2      0.00     95.00     95.00     2.679      9.63    0.0    0.0
  XR-2                    93.95           2      0.00     95.00     95.00     2.570      8.79    0.0    0.0
  XR-3                     0.00           1      0.00     95.00     95.00     0.000      0.00    0.0    0.0
  XR-4                     0.00           1      0.00     95.00     95.00     0.000      0.00    0.0    0.0
  

  Analysis begun on:  Sun Jun 25 21:03:50 2023
  Analysis ended on:  Sun Jun 25 21:04:02 2023
  Total elapsed time: 00:00:12