
  OWA STORM WATER MANAGEMENT MODEL - VERSION v5.1.14 (OWA 2022-07-31)
  --------------------------------------------------------------

  WARNING 04: minimum elevation drop used for Conduit WS02004404WS02004405
  WARNING 03: negative offset ignored for Link YS02001904YS02001907
  
  *********************************************************
  NOTE: The summary statistics displayed in this report are
  based on results found at every computational time step,  
  not just on results from each reporting time step.
  *********************************************************
  
  ****************
  Analysis Options
  ****************
  Flow Units ............... LPS
  Process Models:
    Rainfall/Runoff ........ YES
    RDII ................... NO
    Snowmelt ............... NO
    Groundwater ............ NO
    Flow Routing ........... YES
    Ponding Allowed ........ NO
    Water Quality .......... NO
  Infiltration Method ...... HORTON
  Flow Routing Method ...... DYNWAVE
  Surcharge Method ......... EXTRAN
  Starting Date ............ 08/28/2015 08:00:00
  Ending Date .............. 08/28/2015 16:00:00
  Antecedent Dry Days ...... 8.0
  Report Time Step ......... 00:01:00
  Wet Time Step ............ 00:01:00
  Dry Time Step ............ 00:01:00
  Routing Time Step ........ 30.00 sec
  Variable Time Step ....... YES
  Maximum Trials ........... 8
  Number of Threads ........ 2
  Head Tolerance ........... 0.001500 m
  
  
  **************************        Volume         Depth
  Runoff Quantity Continuity     hectare-m            mm
  **************************     ---------       -------
  Initial LID Storage ......         0.072         1.184
  Total Precipitation ......         1.659        27.379
  Evaporation Loss .........         0.000         0.000
  Infiltration Loss ........         0.175         2.881
  Surface Runoff ...........         1.157        19.091
  Final Storage ............         0.400         6.598
  Continuity Error (%) .....        -0.026
  
  
  **************************        Volume        Volume
  Flow Routing Continuity        hectare-m      10^6 ltr
  **************************     ---------     ---------
  Dry Weather Inflow .......         0.630         6.296
  Wet Weather Inflow .......         1.156        11.564
  Groundwater Inflow .......         0.000         0.000
  RDII Inflow ..............         0.000         0.000
  External Inflow ..........         0.105         1.045
  External Outflow .........         1.499        14.994
  Flooding Loss ............         0.172         1.721
  Evaporation Loss .........         0.000         0.000
  Exfiltration Loss ........         0.000         0.000
  Initial Stored Volume ....         0.303         3.031
  Final Stored Volume ......         0.526         5.255
  Continuity Error (%) .....        -0.157
  
  
  *************************
  Highest Continuity Errors
  *************************
  Node YS02001774 (7.44%)
  Node YS02001884 (6.38%)
  Node HS02004842 (4.57%)
  Node YS02001583 (-3.03%)
  Node HS02004817 (1.95%)
  
  
  ***************************
  Time-Step Critical Elements
  ***************************
  Link WS02006252WS02006251 (74.22%)
  Link WS02006280WS02006229 (13.73%)
  Link WS02006238WS02006235 (4.42%)
  
  
  ********************************
  Highest Flow Instability Indexes
  ********************************
  Link WS02006113WS02006111 (17)
  Link WS02004404WS02004405 (10)
  Link WS02006111WS02006112 (9)
  Link WS02006229WS02006228 (9)
  Link WS02006256WS02006235 (9)
  
  
  *************************
  Routing Time Step Summary
  *************************
  Minimum Time Step           :     0.02 sec
  Average Time Step           :     1.95 sec
  Maximum Time Step           :     6.46 sec
  Percent in Steady State     :    -0.00
  Average Iterations per Step :     2.59
  Percent Not Converging      :     5.92
  
  
  ***************************
  Subcatchment Runoff Summary
  ***************************
  
  ------------------------------------------------------------------------------------------------------------------------------
                            Total      Total      Total      Total     Imperv       Perv      Total       Total     Peak  Runoff
                           Precip      Runon       Evap      Infil     Runoff     Runoff     Runoff      Runoff   Runoff   Coeff
  Subcatchment                 mm         mm         mm         mm         mm         mm         mm    10^6 ltr      LPS
  ------------------------------------------------------------------------------------------------------------------------------
  sub0                      27.38       0.00       0.00       0.91      24.21       1.01      25.22        0.02    15.27   0.921
  sub1                      27.38       0.00       0.00       1.34      20.73       1.36      22.09        0.15    81.35   0.807
  sub10                     27.38       0.00       0.00       0.86      19.43       0.92      20.35        0.22   133.16   0.743
  sub11                     27.38       0.00       0.00       0.79      18.06       0.86      18.92        0.22   144.64   0.691
  sub12                     27.38       0.00       0.00       1.39      18.37       1.50      19.87        0.17   124.93   0.726
  sub14                     27.38       0.00       0.00       0.86      17.11       0.92      18.03        0.17   109.89   0.658
  sub15                     27.38       0.00       0.00       3.77      15.38       3.17      18.55        0.32   170.48   0.677
  sub16                     27.38       0.00       0.00       4.04      15.00       3.73      18.74        0.20   117.85   0.684
  sub17                     27.38       0.00       0.00       4.32      16.56       3.88      20.44        0.18   102.29   0.747
  sub2                      27.38       0.00       0.00       5.76      15.14       3.62      18.76        0.17    75.75   0.685
  sub22                     27.38       0.00       0.00       6.58      14.35       4.82      19.17        1.21   605.54   0.700
  sub23                     27.38       0.00       0.00       5.01      14.78       4.13      18.91        0.90   489.26   0.691
  sub3                      27.38       0.00       0.00       6.05      14.98       3.25      18.23        0.41   157.78   0.666
  sub4                      27.38       0.00       0.00       1.43      20.35       1.23      21.58        0.45   173.52   0.788
  sub5                      27.38       0.00       0.00       0.77      20.05       0.82      20.87        0.24   136.08   0.762
  sub60                     27.38       0.00       0.00       1.23      17.67       1.30      18.97        0.25   163.87   0.693
  sub61                     27.38       0.00       0.00       1.88      17.65       1.93      19.58        0.36   232.18   0.715
  sub62                     27.38       0.00       0.00       0.84      18.81       0.89      19.70        0.54   316.68   0.719
  sub63                     27.38       0.00       0.00       3.39      15.12       3.11      18.23        0.41   244.31   0.666
  sub64                     27.38       0.00       0.00       1.63      17.20       1.57      18.77        0.45   242.26   0.686
  sub65                     27.38       0.00       0.00       1.50      18.56       1.43      19.99        0.55   277.78   0.730
  sub66                     27.38       0.00       0.00       3.81      14.59       2.49      17.07        0.80   327.11   0.624
  sub67                     27.38       0.00       0.00       0.84      19.30       0.93      20.22        0.38   270.89   0.739
  sub68                     27.38       0.00       0.00       1.44      17.04       1.48      18.52        0.51   315.27   0.676
  sub69                     27.38       0.00       0.00       1.25      18.37       2.01      20.38        0.75   382.13   0.744
  sub7                      27.38       0.00       0.00       0.92      18.34       0.99      19.33        0.07    43.97   0.706
  sub70                     27.38       0.00       0.00       4.00      14.69       3.62      18.31        0.53   197.06   0.669
  sub71                     27.38       0.00       0.00       0.77      17.08       0.80      17.88        0.47   251.53   0.653
  sub72                     27.38       0.00       0.00       0.73      18.43       0.74      19.17        0.26   122.50   0.700
  sub8                      27.38       0.00       0.00       0.90      17.82       0.96      18.78        0.12    77.52   0.686
  sub9                      27.38       0.00       0.00       0.87      17.27       0.93      18.20        0.09    56.42   0.665
  

  ***********************
  LID Performance Summary
  ***********************

  --------------------------------------------------------------------------------------------------------------------
                                         Total      Evap     Infil   Surface    Drain    Initial     Final  Continuity
                                        Inflow      Loss      Loss   Outflow   Outflow   Storage   Storage       Error
  Subcatchment      LID Control             mm        mm        mm        mm        mm        mm        mm           %
  --------------------------------------------------------------------------------------------------------------------
  sub1              GreenRoof            27.38      0.00      0.00      0.00      0.00      7.05     34.43        0.00
  sub10             GreenRoof            27.38      0.00      0.00      0.00      0.00      7.05     34.43        0.00
  sub11             GreenRoof            27.38      0.00      0.00      0.00      0.00      7.05     34.43        0.00
  sub12             GreenRoof            27.38      0.00      0.00      0.00      0.00      7.05     34.43        0.00
  sub14             GreenRoof            27.38      0.00      0.00      0.00      0.00      7.05     34.43        0.00
  sub15             GreenRoof            27.38      0.00      0.00      0.00      0.00      7.05     34.43        0.00
  sub16             GreenRoof            27.38      0.00      0.00      0.00      0.00      7.05     34.43        0.00
  sub17             GreenRoof            27.38      0.00      0.00      0.00      0.00      7.05     34.43        0.00
  sub2              GreenRoof            27.38      0.00      0.00      0.00      0.00      7.05     34.43        0.00
  sub22             GreenRoof            27.38      0.00      0.00      0.00      0.00      7.05     34.43        0.00
  sub23             GreenRoof            27.38      0.00      0.00      0.00      0.00      7.05     34.43        0.00
  sub3              GreenRoof            27.38      0.00      0.00      0.00      0.00      7.05     34.43        0.00
  sub4              GreenRoof            27.38      0.00      0.00      0.00      0.00      7.05     34.43        0.00
  sub5              GreenRoof            27.38      0.00      0.00      0.00      0.00      7.05     34.43        0.00
  sub60             GreenRoof            27.38      0.00      0.00      0.00      0.00      7.05     34.43        0.00
  sub61             GreenRoof            27.38      0.00      0.00      0.00      0.00      7.05     34.43        0.00
  sub62             GreenRoof            27.38      0.00      0.00      0.00      0.00      7.05     34.43        0.00
  sub63             GreenRoof            27.38      0.00      0.00      0.00      0.00      7.05     34.43        0.00
  sub64             GreenRoof            27.38      0.00      0.00      0.00      0.00      7.05     34.43        0.00
  sub65             GreenRoof            27.38      0.00      0.00      0.00      0.00      7.05     34.43        0.00
  sub66             GreenRoof            27.38      0.00      0.00      0.00      0.00      7.05     34.43        0.00
  sub67             GreenRoof            27.38      0.00      0.00      0.00      0.00      7.05     34.43        0.00
  sub68             GreenRoof            27.38      0.00      0.00      0.00      0.00      7.05     34.43        0.00
  sub69             GreenRoof            27.38      0.00      0.00      0.00      0.00      7.05     34.43        0.00
  sub7              GreenRoof            27.38      0.00      0.00      0.00      0.00      7.05     34.43        0.00
  sub70             GreenRoof            27.38      0.00      0.00      0.00      0.00      7.05     34.43        0.00
  sub71             GreenRoof            27.38      0.00      0.00      0.00      0.00      7.05     34.43        0.00
  sub72             GreenRoof            27.38      0.00      0.00      0.00      0.00      7.05     34.43        0.00
  sub8              GreenRoof            27.38      0.00      0.00      0.00      0.00      7.05     34.43        0.00
  sub9              GreenRoof            27.38      0.00      0.00      0.00      0.00      7.05     34.43        0.00
  
  ******************
  Node Depth Summary
  ******************
  
  ---------------------------------------------------------------------------------
                                 Average  Maximum  Maximum  Time of Max    Reported
                                   Depth    Depth      HGL   Occurrence   Max Depth
  Node                 Type       Meters   Meters   Meters  days hr:min      Meters
  ---------------------------------------------------------------------------------
  HS02004478           JUNCTION     0.11     0.77    10.00     0  01:41        0.76
  HS02004479           JUNCTION     0.18     0.95    10.15     0  01:41        0.92
  HS02004480           JUNCTION     0.15     0.91    10.15     0  01:41        0.87
  HS02004770           JUNCTION     0.16     0.83    10.66     0  01:42        0.78
  HS02004777           JUNCTION     0.19     0.80    10.60     0  01:42        0.77
  HS02004785           JUNCTION     0.09     0.61    10.51     0  01:43        0.61
  HS02004788           JUNCTION     0.06     0.58    10.48     0  01:43        0.57
  HS02004792           JUNCTION     0.09     1.29    10.81     0  01:39        0.90
  HS02004799           JUNCTION     0.20     1.05    10.26     0  01:43        1.03
  HS02004802           JUNCTION     0.21     0.92    10.05     0  01:41        0.87
  HS02004807           JUNCTION     0.18     0.95    10.12     0  01:41        0.82
  HS02004817           JUNCTION     0.48     1.25    10.10     0  01:43        1.25
  HS02004824           JUNCTION     0.06     0.60    10.00     0  01:44        0.60
  HS02004830           JUNCTION     0.07     0.54    10.01     0  01:44        0.53
  HS02004837           JUNCTION     0.05     0.42    10.00     0  01:44        0.42
  HS02004842           JUNCTION     0.35     0.83    10.10     0  01:42        0.73
  HS02004848           JUNCTION     0.03     0.37     9.97     0  01:43        0.37
  HS02004852           JUNCTION     0.03     0.39     9.90     0  01:43        0.39
  HS02004856           JUNCTION     0.09     0.43     9.86     0  01:44        0.43
  HS02004862           JUNCTION     0.04     0.38     9.77     0  01:44        0.37
  HS02004870           JUNCTION     0.04     0.33     9.62     0  01:44        0.33
  HS02004876           JUNCTION     0.07     0.40     9.43     0  01:45        0.40
  HS02004881           JUNCTION     0.02     0.19     9.22     0  01:41        0.15
  HS02004901           JUNCTION     0.17     0.85    10.67     0  01:42        0.79
  WS02001211           JUNCTION     0.62     0.83     5.67     0  01:49        0.81
  WS02001212           JUNCTION     0.36     0.60     5.66     0  01:48        0.56
  WS02001213           JUNCTION     0.57     0.92     5.68     0  01:48        0.90
  WS02003059           JUNCTION     0.63     0.93     5.62     0  01:50        0.92
  WS02003060           JUNCTION     0.34     0.66     5.59     0  01:51        0.65
  WS02003066           JUNCTION     0.19     0.43     5.98     0  01:49        0.43
  WS02003067           JUNCTION     0.49     0.91     6.23     0  01:42        0.87
  WS02003069           JUNCTION     0.38     0.74     5.33     0  01:51        0.74
  WS02003072           JUNCTION     0.45     0.78     5.16     0  01:50        0.78
  WS02003073           JUNCTION     0.27     0.50     4.56     0  01:51        0.49
  WS02004138           JUNCTION     0.13     0.14     7.39     0  00:32        0.14
  WS02004139           JUNCTION     0.56     0.75     5.66     0  01:46        0.74
  WS02004401           JUNCTION     0.64     2.66     8.66     0  01:40        1.72
  WS02004402           JUNCTION     0.66     2.74     8.70     0  01:40        1.66
  WS02004403           JUNCTION     0.68     2.93     8.86     0  01:40        1.53
  WS02004404           JUNCTION     0.75     2.99     8.84     0  01:40        1.64
  WS02004405           JUNCTION     0.74     2.83     8.68     0  01:40        1.61
  WS02004406           JUNCTION     0.74     2.34     8.17     0  01:40        1.40
  WS02004407           JUNCTION     0.19     0.73     7.05     0  01:45        0.73
  WS02004409           JUNCTION     0.42     1.50     7.27     0  01:42        1.25
  WS02004410           JUNCTION     0.43     1.21     6.93     0  01:42        1.18
  WS02004411           JUNCTION     0.45     1.14     6.82     0  01:43        1.11
  WS02004412           JUNCTION     0.46     1.10     6.74     0  01:43        1.05
  WS02004413           JUNCTION     0.61     1.61     7.08     0  01:42        1.11
  WS02006109           JUNCTION     0.74     2.64     9.26     0  01:40        2.48
  WS02006110           JUNCTION     0.72     2.76     9.34     0  01:40        2.17
  WS02006111           JUNCTION     0.27     2.68     9.39     0  01:40        1.58
  WS02006112           JUNCTION     0.81     2.68     8.56     0  01:40        2.20
  WS02006113           JUNCTION     0.33     2.67     9.57     0  01:40        1.56
  WS02006115           JUNCTION     0.53     3.24     9.38     0  01:40        1.76
  WS02006116           JUNCTION     0.61     2.97     9.01     0  01:40        1.71
  WS02006228           JUNCTION     0.76     3.03     9.68     0  01:40        2.74
  WS02006229           JUNCTION     0.75     3.18     9.87     0  01:40        2.86
  WS02006230           JUNCTION     0.71     2.65     9.39     0  01:40        2.65
  WS02006231           JUNCTION     0.47     2.19     9.31     0  01:41        2.19
  WS02006232           JUNCTION     0.56     2.18     9.22     0  01:40        2.18
  WS02006234           JUNCTION     0.45     1.96     9.12     0  01:39        1.96
  WS02006235           JUNCTION     0.47     2.00     9.16     0  01:39        1.93
  WS02006238           JUNCTION     0.49     2.08     9.22     0  01:39        1.92
  WS02006239           JUNCTION     0.44     2.03     9.24     0  01:39        1.80
  WS02006240           JUNCTION     0.40     2.10     9.39     0  01:39        1.62
  WS02006242           JUNCTION     0.45     1.55     8.82     0  01:39        1.55
  WS02006243           JUNCTION     0.36     1.48     8.90     0  01:40        1.48
  WS02006245           JUNCTION     0.36     1.56     9.04     0  01:40        1.26
  WS02006247           JUNCTION     0.37     1.47     8.97     0  01:40        1.27
  WS02006248           JUNCTION     0.33     1.10     8.69     0  01:40        1.10
  WS02006249           JUNCTION     0.35     1.09     8.69     0  01:40        1.09
  WS02006251           JUNCTION     0.35     2.21     9.88     0  01:40        1.96
  WS02006252           JUNCTION     0.25     1.50     9.74     0  00:00        1.50
  WS02006253           JUNCTION     0.38     2.12     9.76     0  01:40        1.80
  WS02006256           JUNCTION     0.74     2.35     9.28     0  00:00        2.35
  WS02006280           JUNCTION     0.15     1.74    10.01     0  01:40        1.36
  WS02006284           JUNCTION     0.43     2.08    10.48     0  01:40        1.39
  WS02006287           JUNCTION     0.17     1.04    10.00     0  01:43        1.02
  WSF200               JUNCTION     0.18     0.53     5.77     0  01:43        0.53
  YS02001580           JUNCTION     0.01     0.60     9.14     0  01:46        0.60
  YS02001583           JUNCTION     0.04     0.63     9.12     0  01:45        0.59
  YS02001586           JUNCTION     0.08     0.95     9.12     0  01:43        0.90
  YS02001590           JUNCTION     0.15     1.22     9.08     0  01:43        1.18
  YS02001593           JUNCTION     0.09     1.17     9.03     0  01:45        1.14
  YS02001596           JUNCTION     0.13     1.57     8.99     0  01:45        1.55
  YS02001600           JUNCTION     0.17     1.84     8.97     0  01:43        1.84
  YS02001601           JUNCTION     0.35     2.06     8.90     0  01:43        2.06
  YS02001602           JUNCTION     0.28     1.87     8.77     0  01:43        1.87
  YS02001605           JUNCTION     0.25     1.58     8.48     0  01:44        1.58
  YS02001607           JUNCTION     0.27     1.22     8.07     0  01:44        1.17
  YS02001610           JUNCTION     0.31     1.26     8.06     0  01:44        1.21
  YS02001613           JUNCTION     0.27     1.20     8.04     0  01:44        1.15
  YS02001616           JUNCTION     0.20     1.11     8.02     0  01:44        1.07
  YS02001619           JUNCTION     0.18     1.07     8.00     0  01:44        1.03
  YS02001622           JUNCTION     0.17     1.05     7.95     0  01:45        1.03
  YS02001625           JUNCTION     0.43     1.29     7.89     0  01:45        1.27
  YS02001629           JUNCTION     0.28     1.29     7.84     0  01:45        1.29
  YS02001633           JUNCTION     0.36     1.31     7.77     0  01:45        1.30
  YS02001641           JUNCTION     0.35     1.11     7.55     0  01:45        1.10
  YS02001644           JUNCTION     0.35     1.05     7.48     0  01:45        1.04
  YS02001647           JUNCTION     0.15     0.67     7.28     0  01:45        0.67
  YS02001649           JUNCTION     0.28     0.76     7.15     0  01:46        0.75
  YS02001652           JUNCTION     0.10     0.56     7.16     0  01:45        0.56
  YS02001655           JUNCTION     0.05     0.29     7.14     0  01:46        0.27
  YS02001658           JUNCTION     0.04     0.22     7.36     0  01:40        0.22
  YS02001661           JUNCTION     0.10     0.28     7.68     0  01:40        0.28
  YS02001664           JUNCTION     0.03     0.19     8.11     0  01:40        0.19
  YS02001745           JUNCTION     0.03     0.17     7.69     0  01:39        0.17
  YS02001748           JUNCTION     0.03     0.19     7.27     0  01:39        0.19
  YS02001751           JUNCTION     0.03     0.19     7.07     0  01:39        0.19
  YS02001754           JUNCTION     0.08     0.41     7.02     0  01:47        0.41
  YS02001757           JUNCTION     0.38     0.76     7.02     0  01:46        0.75
  YS02001759           JUNCTION     0.29     0.66     7.02     0  01:46        0.66
  YS02001762           JUNCTION     0.26     0.63     7.03     0  01:46        0.63
  YS02001765           JUNCTION     0.22     0.59     7.04     0  01:46        0.58
  YS02001767           JUNCTION     0.19     0.55     7.04     0  01:47        0.55
  YS02001770           JUNCTION     0.19     0.56     7.06     0  01:46        0.56
  YS02001774           JUNCTION     0.25     0.65     7.07     0  01:47        0.64
  YS02001779           JUNCTION     0.03     0.39     7.07     0  01:47        0.37
  YS02001783           JUNCTION     0.14     0.71     6.85     0  01:46        0.70
  YS02001784           JUNCTION     0.16     0.70     6.77     0  01:46        0.70
  YS02001786           JUNCTION     0.14     0.58     6.61     0  01:46        0.58
  YS02001788           JUNCTION     0.10     0.46     6.44     0  01:46        0.46
  YS02001790           JUNCTION     0.12     0.55     6.20     0  01:47        0.55
  YS02001791           JUNCTION     0.08     0.33     5.80     0  01:46        0.33
  YS02001793           JUNCTION     0.04     0.17     5.00     0  01:46        0.17
  YS02001882           JUNCTION     0.18     0.73     7.45     0  01:44        0.73
  YS02001884           JUNCTION     0.27     0.83     7.45     0  01:44        0.83
  YS02001887           JUNCTION     0.34     0.91     7.45     0  01:45        0.91
  YS02001890           JUNCTION     0.37     0.94     7.45     0  01:45        0.93
  YS02001895           JUNCTION     0.15     0.70     7.44     0  01:45        0.69
  YS02001898           JUNCTION     0.16     0.71     7.45     0  01:45        0.71
  YS02001901           JUNCTION     0.27     0.84     7.45     0  01:45        0.84
  YS02001904           JUNCTION     0.25     0.81     7.44     0  01:45        0.81
  YS02001907           JUNCTION     0.56     1.15     7.44     0  01:46        1.15
  YS02001910           JUNCTION     0.36     0.94     7.44     0  01:46        0.94
  YS02001915           JUNCTION     0.18     0.72     7.44     0  01:46        0.72
  YS02001918           JUNCTION     0.06     0.38     7.44     0  01:44        0.37
  YS02001920           JUNCTION     0.14     0.45     7.46     0  01:44        0.44
  YS02001923           JUNCTION     0.04     0.19     7.45     0  01:45        0.19
  YS02001926           JUNCTION     0.09     0.29     7.74     0  01:43        0.29
  YS02001929           JUNCTION     0.04     0.16     7.86     0  01:43        0.16
  YS02006553           JUNCTION     0.57     1.15     7.44     0  01:46        1.14
  YS02006556           JUNCTION     0.54     1.11     7.42     0  01:45        1.11
  YS02006558           JUNCTION     0.59     1.14     7.41     0  01:46        1.13
  YS02006561           JUNCTION     0.08     0.39     7.05     0  01:45        0.39
  YS02163301           JUNCTION     0.30     1.30     7.81     0  01:45        1.30
  YS02163601           JUNCTION     0.40     1.26     7.66     0  01:45        1.26
  YS02164001           JUNCTION     0.34     1.14     7.60     0  01:45        1.13
  YSB1154              JUNCTION     0.31     1.13    10.18     0  01:41        1.08
  YSB1171              JUNCTION     0.46     1.26    10.17     0  01:41        1.22
  YSB1174              JUNCTION     0.27     1.06    10.17     0  01:41        1.01
  YSB6556              JUNCTION     0.21     1.01    10.18     0  01:41        0.97
  CC-1                 OUTFALL      0.00     0.00     0.00     0  00:00        0.00
  CC-2                 OUTFALL      0.00     0.00     0.00     0  00:00        0.00
  JK-1                 OUTFALL      0.00     0.00     0.00     0  00:00        0.00
  JK-2                 OUTFALL      0.00     0.00     0.00     0  00:00        0.00
  WSC                  OUTFALL      0.27     0.49     1.16     0  01:51        0.49
  CC-storage           STORAGE      1.08     1.31     6.81     0  02:08        1.31
  JK-storage           STORAGE      3.12     4.24     5.04     0  01:45        4.14
  XR-storage           STORAGE      7.97     9.26     7.26     0  08:00        9.26
  
  
  *******************
  Node Inflow Summary
  *******************
  
  -------------------------------------------------------------------------------------------------
                                  Maximum  Maximum                  Lateral       Total        Flow
                                  Lateral    Total  Time of Max      Inflow      Inflow     Balance
                                   Inflow   Inflow   Occurrence      Volume      Volume       Error
  Node                 Type           LPS      LPS  days hr:min    10^6 ltr    10^6 ltr     Percent
  -------------------------------------------------------------------------------------------------
  HS02004478           JUNCTION      0.00  1867.32     0  01:40           0        4.27      -0.018
  HS02004479           JUNCTION      0.00   261.63     0  01:39           0        0.42       0.156
  HS02004480           JUNCTION      0.00  1627.41     0  01:41           0        3.26       0.074
  HS02004770           JUNCTION    489.26   602.26     0  01:40       0.902         1.1       0.281
  HS02004777           JUNCTION      0.03   602.04     0  01:42    0.000864         1.1       0.473
  HS02004785           JUNCTION      0.15   609.62     0  01:42     0.00432         1.1       0.044
  HS02004788           JUNCTION    172.15   725.04     0  01:42       0.367        1.46       0.027
  HS02004792           JUNCTION    605.82  1286.04     0  01:43        1.22        2.68       0.013
  HS02004799           JUNCTION    109.89  1386.97     0  01:43       0.172        2.85       0.086
  HS02004802           JUNCTION      0.00   324.23     0  01:54           0        1.03       0.390
  HS02004807           JUNCTION    144.64   308.75     0  01:56        0.22        1.04       0.406
  HS02004817           JUNCTION      0.60   256.16     0  01:56      0.0173       0.844       1.986
  HS02004824           JUNCTION    173.57   257.38     0  01:42       0.452       0.886       0.061
  HS02004830           JUNCTION      0.15   237.99     0  01:42     0.00432       0.492       0.253
  HS02004837           JUNCTION    139.51   372.91     0  01:42       0.407        0.59       0.139
  HS02004842           JUNCTION      0.00   376.00     0  01:42           0       0.285       4.784
  HS02004848           JUNCTION    157.78   502.51     0  01:43        0.41       0.564       0.010
  HS02004852           JUNCTION      0.00   472.89     0  01:43           0       0.446       0.011
  HS02004856           JUNCTION     56.42   505.58     0  01:44      0.0876       0.534       0.269
  HS02004862           JUNCTION     75.95   576.16     0  01:44       0.181       0.713       0.021
  HS02004870           JUNCTION     77.52   641.38     0  01:44        0.12       0.833       0.014
  HS02004876           JUNCTION     81.35   719.67     0  01:45       0.147        0.98       0.050
  HS02004881           JUNCTION     43.97   762.40     0  01:45      0.0651        1.04       0.058
  HS02004901           JUNCTION    117.85   117.85     0  01:40       0.196       0.196       0.900
  WS02001211           JUNCTION      7.35   340.57     0  01:47       0.212        5.45       0.609
  WS02001212           JUNCTION      0.00   401.15     0  01:44           0        5.42       0.290
  WS02001213           JUNCTION      0.00   370.42     0  01:44           0        5.41       0.333
  WS02003059           JUNCTION      0.00   415.06     0  01:43           0        5.42       0.605
  WS02003060           JUNCTION     16.53  1435.10     0  01:50       0.476        11.5       0.142
  WS02003066           JUNCTION      0.00  1189.98     0  01:45           0        5.63       0.036
  WS02003067           JUNCTION      0.00  1182.62     0  01:45           0        5.64       0.093
  WS02003069           JUNCTION      0.32  1405.62     0  01:51     0.00922        11.4       0.153
  WS02003072           JUNCTION      0.00  1398.55     0  01:52           0        11.4       0.203
  WS02003073           JUNCTION      1.82  1402.18     0  01:50      0.0524        11.5       0.214
  WS02004138           JUNCTION      0.00   380.00     0  00:00           0        5.25       0.054
  WS02004139           JUNCTION      0.32   269.07     0  01:46     0.00924        5.26       0.509
  WS02004401           JUNCTION      0.00  1221.35     0  01:43           0        5.76       0.194
  WS02004402           JUNCTION      0.00  1220.94     0  01:43           0        5.75       0.197
  WS02004403           JUNCTION      0.00  1221.07     0  01:43           0        5.73       0.189
  WS02004404           JUNCTION      0.16  1226.91     0  01:43     0.00467        5.73       0.158
  WS02004405           JUNCTION      0.04  1236.73     0  01:43      0.0011        5.72       0.227
  WS02004406           JUNCTION      0.00  1243.62     0  01:43           0        5.71       0.392
  WS02004407           JUNCTION      0.00  1245.53     0  01:43           0        5.68       0.041
  WS02004409           JUNCTION      0.00  1285.41     0  01:41           0        5.68       0.092
  WS02004410           JUNCTION      0.00  1265.21     0  01:41           0        5.68       0.117
  WS02004411           JUNCTION      0.00  1224.27     0  01:41           0        5.67       0.140
  WS02004412           JUNCTION      0.00  1181.72     0  01:45           0        5.66       0.173
  WS02004413           JUNCTION      0.00  1182.32     0  01:45           0        5.65       0.279
  WS02006109           JUNCTION      1.23  1231.80     0  01:40      0.0354        5.63       0.191
  WS02006110           JUNCTION      0.00  1226.86     0  01:40           0        5.62       0.137
  WS02006111           JUNCTION      0.00  1223.84     0  01:40           0        5.61       0.003
  WS02006112           JUNCTION    102.29  1216.53     0  01:43       0.175        5.79       0.324
  WS02006113           JUNCTION      0.00  1225.99     0  01:40           0        5.61       0.046
  WS02006115           JUNCTION      0.00  1217.84     0  01:43           0        5.77       0.133
  WS02006116           JUNCTION      0.00  1220.47     0  01:43           0        5.76       0.020
  WS02006228           JUNCTION      0.00  1249.02     0  01:40           0         5.6       0.088
  WS02006229           JUNCTION      0.00  1694.97     0  01:43           0        6.25       0.138
  WS02006230           JUNCTION     10.28   596.75     0  01:44       0.296        2.64       0.334
  WS02006231           JUNCTION      0.00   537.10     0  01:38           0        2.26      -0.228
  WS02006232           JUNCTION      0.00   531.30     0  01:39           0        2.24       0.385
  WS02006234           JUNCTION      0.00   530.77     0  01:38           0        2.21      -0.336
  WS02006235           JUNCTION      0.00   541.62     0  01:39           0        2.21       0.359
  WS02006238           JUNCTION      0.00   515.74     0  01:39           0        1.96      -0.320
  WS02006239           JUNCTION      0.00   538.65     0  01:39           0        1.92      -0.214
  WS02006240           JUNCTION      0.00   742.43     0  01:39           0        1.88      -0.009
  WS02006242           JUNCTION      0.00   771.85     0  01:39           0        1.85      -0.024
  WS02006243           JUNCTION      0.00   682.22     0  01:39           0        1.72       0.026
  WS02006245           JUNCTION      0.00   484.90     0  01:40           0        1.72       0.659
  WS02006247           JUNCTION      0.00   577.29     0  01:40           0        1.72       0.078
  WS02006248           JUNCTION      0.00   648.01     0  01:40           0        1.76      -0.151
  WS02006249           JUNCTION      0.00   869.78     0  01:48           0        2.48       0.386
  WS02006251           JUNCTION      0.08   869.69     0  01:49     0.00222        2.48      -0.037
  WS02006252           JUNCTION      0.00   400.00     0  00:00           0        1.38      -0.039
  WS02006253           JUNCTION     15.27   769.91     0  01:45      0.0204         1.1      -0.084
  WS02006256           JUNCTION      0.00   300.00     0  00:00           0       0.331      -1.475
  WS02006280           JUNCTION      0.00  1778.91     0  01:40           0        4.27      -0.039
  WS02006284           JUNCTION      0.10  1826.58     0  01:40     0.00275        4.27       0.049
  WS02006287           JUNCTION      0.00  1875.22     0  01:40           0        4.27       0.070
  WSF200               JUNCTION      0.00  1187.70     0  01:46           0        5.63       0.024
  YS02001580           JUNCTION      0.00    46.91     0  01:44           0     0.00479       0.113
  YS02001583           JUNCTION      0.00    75.86     0  01:43           0      0.0155      -2.944
  YS02001586           JUNCTION    197.06   209.06     0  01:49       0.529        0.54       0.166
  YS02001590           JUNCTION      0.00   210.21     0  01:52           0       0.529      -0.013
  YS02001593           JUNCTION      0.00   210.16     0  01:52           0       0.529       0.007
  YS02001596           JUNCTION      0.00   210.17     0  01:52           0       0.529      -0.033
  YS02001600           JUNCTION      0.00   210.20     0  01:52           0       0.529       0.009
  YS02001601           JUNCTION    382.13   542.65     0  01:46       0.754        1.28       0.053
  YS02001602           JUNCTION      0.00   520.28     0  01:47           0        1.28       0.029
  YS02001605           JUNCTION      0.00   520.33     0  01:47           0        1.28       0.035
  YS02001607           JUNCTION      0.00   520.25     0  01:47           0        1.28       0.133
  YS02001610           JUNCTION      0.00   520.39     0  01:47           0        1.28       0.168
  YS02001613           JUNCTION      0.00   520.64     0  01:47           0        1.28       0.122
  YS02001616           JUNCTION      0.00   520.52     0  01:47           0        1.28       0.031
  YS02001619           JUNCTION    327.11   833.92     0  01:44       0.796        2.07      -0.001
  YS02001622           JUNCTION      0.00   839.04     0  01:45           0        2.07       0.002
  YS02001625           JUNCTION      0.00   843.06     0  01:45           0        2.07       0.457
  YS02001629           JUNCTION      0.00   843.50     0  01:45           0        2.06       0.025
  YS02001633           JUNCTION    277.98  1103.02     0  01:45       0.556        2.62       0.133
  YS02001641           JUNCTION      0.00  1103.30     0  01:45           0        2.62       0.111
  YS02001644           JUNCTION    242.30  1320.21     0  01:45       0.452        3.07       0.112
  YS02001647           JUNCTION      0.00  1319.86     0  01:45           0        3.05       0.006
  YS02001649           JUNCTION      0.00  1514.97     0  01:46           0        3.47       0.194
  YS02001652           JUNCTION      0.00   250.60     0  01:41           0       0.418      -0.446
  YS02001655           JUNCTION      0.15   243.96     0  01:40     0.00443       0.418       0.395
  YS02001658           JUNCTION      0.00   243.97     0  01:40           0       0.414      -0.003
  YS02001661           JUNCTION      0.00   244.17     0  01:40           0       0.414       0.085
  YS02001664           JUNCTION    244.31   244.31     0  01:40       0.414       0.414      -0.011
  YS02001745           JUNCTION    163.88   163.88     0  01:40       0.249       0.249      -0.003
  YS02001748           JUNCTION      0.04   163.85     0  01:39      0.0013       0.251      -0.000
  YS02001751           JUNCTION      0.01   164.07     0  01:39    0.000317       0.251       0.455
  YS02001754           JUNCTION      0.26   164.30     0  01:40     0.00749       0.262      -0.518
  YS02001757           JUNCTION      0.00  2074.57     0  01:46           0        4.66       0.767
  YS02001759           JUNCTION    232.22   474.23     0  01:41        0.36       0.951       0.516
  YS02001762           JUNCTION      0.00   274.26     0  01:48           0       0.591       0.638
  YS02001765           JUNCTION      0.00   281.30     0  01:40           0       0.588       0.536
  YS02001767           JUNCTION      0.54   301.07     0  01:41      0.0154       0.582       0.553
  YS02001770           JUNCTION    316.83   316.83     0  01:41       0.544       0.589       0.373
  YS02001774           JUNCTION      0.00    43.46     0  01:36           0      0.0446       8.039
  YS02001779           JUNCTION      0.01    15.58     0  01:47    0.000144     0.00833       0.236
  YS02001783           JUNCTION      0.00   774.42     0  01:46           0        1.67       0.016
  YS02001784           JUNCTION      1.06   774.69     0  01:46      0.0305         1.7       0.029
  YS02001786           JUNCTION      0.06   774.47     0  01:46     0.00162         1.7       0.037
  YS02001788           JUNCTION      0.07   775.22     0  01:46     0.00204         1.7       0.019
  YS02001790           JUNCTION      0.15   777.16     0  01:46     0.00446        1.71       0.027
  YS02001791           JUNCTION      0.00   806.31     0  01:47           0         1.7       0.010
  YS02001793           JUNCTION      0.00   778.42     0  01:46           0         1.7       0.015
  YS02001882           JUNCTION      0.00    23.37     0  01:39           0        0.01       6.790
  YS02001884           JUNCTION      0.00    67.59     0  01:39           0      0.0391       6.817
  YS02001887           JUNCTION    271.34   271.34     0  01:39       0.389       0.416       1.083
  YS02001890           JUNCTION      0.00   231.71     0  01:42           0       0.381       1.357
  YS02001895           JUNCTION      0.00   225.86     0  01:42           0       0.376       0.447
  YS02001898           JUNCTION      0.00   214.40     0  01:43           0       0.375       0.082
  YS02001901           JUNCTION      0.00   202.46     0  01:42           0       0.379       0.864
  YS02001904           JUNCTION      0.00   202.37     0  01:49           0       0.392       0.738
  YS02001907           JUNCTION      0.00   560.82     0  01:49           0         1.2       1.505
  YS02001910           JUNCTION      0.00   364.33     0  01:45           0       0.814       0.887
  YS02001915           JUNCTION    251.55   368.63     0  01:45       0.468       0.815       0.204
  YS02001918           JUNCTION      0.00   143.01     0  01:45           0       0.348       0.090
  YS02001920           JUNCTION      2.87   137.71     0  01:45      0.0827       0.349       0.303
  YS02001923           JUNCTION      0.04   122.32     0  01:43     0.00109       0.266       0.000
  YS02001926           JUNCTION      0.05   122.52     0  01:43      0.0015       0.265       0.086
  YS02001929           JUNCTION    122.50   122.50     0  01:43       0.264       0.264      -0.012
  YS02006553           JUNCTION      0.00   560.93     0  01:49           0         1.2       0.996
  YS02006556           JUNCTION      0.00   560.91     0  01:49           0        1.21       0.686
  YS02006558           JUNCTION    316.15   775.37     0  01:46       0.535        1.71       0.201
  YS02006561           JUNCTION      0.00   773.94     0  01:46           0        1.67       0.002
  YS02163301           JUNCTION      0.00   847.94     0  01:45           0        2.07       0.077
  YS02163601           JUNCTION      0.11  1102.96     0  01:45     0.00317        2.62       0.187
  YS02164001           JUNCTION      0.00  1103.56     0  01:45           0        2.61       0.095
  YSB1154              JUNCTION    136.08   136.08     0  01:41       0.236       0.237       0.592
  YSB1171              JUNCTION      0.00   260.06     0  01:39           0       0.418       1.503
  YSB1174              JUNCTION    124.93   124.93     0  01:39       0.174       0.174       0.694
  YSB6556              JUNCTION      0.00   136.14     0  01:41           0       0.238       0.478
  CC-1                 OUTFALL       0.00   683.00     0  00:00           0        2.05       0.000
  CC-2                 OUTFALL       0.00   683.00     0  00:00           0       0.206       0.000
  JK-1                 OUTFALL       0.00  1000.00     0  00:00           0        1.27       0.000
  JK-2                 OUTFALL       0.00  1000.00     0  00:00           0      0.0484       0.000
  WSC                  OUTFALL       0.00  1400.26     0  01:51           0        11.4       0.000
  CC-storage           STORAGE       0.00  2023.49     0  01:46           0        6.82       0.201
  JK-storage           STORAGE       0.00   778.29     0  01:46           0        1.85       0.456
  XR-storage           STORAGE     200.00   200.00     0  00:00        5.76        6.36       0.001
  
  
  **********************
  Node Surcharge Summary
  **********************
  
  Surcharging occurs when water rises above the top of the highest conduit.
  ---------------------------------------------------------------------
                                               Max. Height   Min. Depth
                                   Hours       Above Crown    Below Rim
  Node                 Type      Surcharged         Meters       Meters
  ---------------------------------------------------------------------
  HS02004479           JUNCTION        0.15          0.150        0.900
  HS02004480           JUNCTION        0.19          0.196        0.904
  HS02004770           JUNCTION        0.07          0.128        0.592
  HS02004777           JUNCTION        0.08          0.104        0.676
  HS02004792           JUNCTION        0.16          0.588        0.312
  HS02004799           JUNCTION        0.25          0.348        0.712
  HS02004802           JUNCTION        0.17          0.213        0.997
  HS02004807           JUNCTION        0.15          0.254        0.966
  HS02004817           JUNCTION        0.57          0.548        1.192
  HS02004842           JUNCTION        0.06          0.127        1.393
  HS02004901           JUNCTION        0.08          0.147        0.573
  WS02004401           JUNCTION        0.95          1.660        0.000
  WS02004402           JUNCTION        0.97          1.740        0.000
  WS02004403           JUNCTION        0.98          1.925        0.105
  WS02004404           JUNCTION        1.08          1.987        0.793
  WS02004405           JUNCTION        1.05          1.834        0.966
  WS02004406           JUNCTION        1.03          1.344        1.106
  WS02004409           JUNCTION        0.32          0.505        1.855
  WS02004410           JUNCTION        0.30          0.215        2.325
  WS02004411           JUNCTION        0.27          0.136        2.394
  WS02004412           JUNCTION        0.21          0.096        2.214
  WS02004413           JUNCTION        0.60          0.612        1.588
  WS02006109           JUNCTION        1.54          1.820        0.000
  WS02006110           JUNCTION        1.31          1.850        0.000
  WS02006111           JUNCTION        0.55          1.870        0.000
  WS02006112           JUNCTION        1.34          1.680        0.000
  WS02006113           JUNCTION        0.57          1.873        0.057
  WS02006115           JUNCTION        0.79          2.234        0.016
  WS02006116           JUNCTION        0.80          1.908        0.382
  WS02006228           JUNCTION        1.53          2.200        0.000
  WS02006229           JUNCTION        0.31          0.996        0.074
  WS02006230           JUNCTION        1.06          1.570        0.000
  WS02006231           JUNCTION        1.13          1.479        0.051
  WS02006232           JUNCTION        1.29          1.480        0.000
  WS02006234           JUNCTION        1.20          1.240        0.000
  WS02006235           JUNCTION        1.25          1.290        0.000
  WS02006238           JUNCTION        1.27          1.360        0.070
  WS02006239           JUNCTION        1.15          1.290        0.000
  WS02006240           JUNCTION        1.11          1.390        0.000
  WS02006242           JUNCTION        1.16          0.820        0.000
  WS02006243           JUNCTION        1.01          0.770        0.000
  WS02006245           JUNCTION        0.98          0.850        0.000
  WS02006247           JUNCTION        0.99          0.760        0.000
  WS02006248           JUNCTION        0.95          0.380        0.000
  WS02006249           JUNCTION        0.96          0.390        0.000
  WS02006251           JUNCTION        0.81          1.180        0.000
  WS02006252           JUNCTION        0.93          1.100        0.000
  WS02006253           JUNCTION        0.81          1.080        1.400
  WS02006256           JUNCTION        7.98          2.050        0.000
  WS02006280           JUNCTION        0.24          0.685        0.095
  WS02006284           JUNCTION        0.18          0.800        0.000
  WS02006287           JUNCTION        0.07          0.043        0.847
  YS02001586           JUNCTION        0.12          0.330        0.180
  YS02001590           JUNCTION        0.22          0.568        0.182
  YS02001593           JUNCTION        0.22          0.550        0.290
  YS02001596           JUNCTION        0.32          0.844        0.226
  YS02001600           JUNCTION        0.41          1.163        0.027
  YS02001601           JUNCTION        0.68          1.440        0.000
  YS02001602           JUNCTION        0.59          1.270        0.000
  YS02001605           JUNCTION        0.55          0.982        0.198
  YS02001607           JUNCTION        0.14          0.223        0.457
  YS02001610           JUNCTION        0.17          0.260        0.420
  YS02001613           JUNCTION        0.13          0.200        0.500
  YS02001616           JUNCTION        0.07          0.107        0.503
  YS02001619           JUNCTION        0.05          0.070        0.540
  YS02001622           JUNCTION        0.03          0.051        0.569
  YS02001625           JUNCTION        0.26          0.286        0.494
  YS02001633           JUNCTION        0.27          0.295        0.765
  YS02001641           JUNCTION        0.16          0.114        0.986
  YS02001644           JUNCTION        0.09          0.046        0.874
  YS02001907           JUNCTION        0.21          0.143        0.807
  YS02006553           JUNCTION        0.23          0.151        1.039
  YS02006556           JUNCTION        0.12          0.066        1.284
  YS02006558           JUNCTION        0.10          0.042        1.358
  YS02163301           JUNCTION        0.25          0.296        0.734
  YS02163601           JUNCTION        0.29          0.259        0.821
  YS02164001           JUNCTION        0.18          0.139        0.961
  YSB1154              JUNCTION        0.34          0.425        0.975
  YSB1171              JUNCTION        0.34          0.413        0.687
  YSB1174              JUNCTION        0.28          0.362        0.888
  YSB6556              JUNCTION        0.24          0.307        0.793
  
  
  *********************
  Node Flooding Summary
  *********************
  
  Flooding refers to all water that overflows a node, whether it ponds or not.
  --------------------------------------------------------------------------
                                                             Total   Maximum
                                 Maximum   Time of Max       Flood    Ponded
                        Hours       Rate    Occurrence      Volume     Depth
  Node                 Flooded       LPS   days hr:min    10^6 ltr    Meters
  --------------------------------------------------------------------------
  WS02004401              0.01     81.04      0  01:40       0.000     0.000
  WS02004402              0.01     20.93      0  01:40       0.000     0.000
  WS02006109              0.01    129.90      0  01:40       0.001     0.000
  WS02006110              0.01     70.79      0  01:40       0.000     0.000
  WS02006111              0.01    341.81      0  01:40       0.001     0.000
  WS02006112              0.01    262.12      0  01:40       0.001     0.000
  WS02006228              0.01      7.91      0  01:40       0.000     0.000
  WS02006230              0.20    143.60      0  01:44       0.074     0.000
  WS02006232              0.05      1.13      0  01:40       0.000     0.000
  WS02006234              0.23    126.84      0  01:44       0.044     0.000
  WS02006235              0.01     40.90      0  01:39       0.000     0.000
  WS02006239              0.01    222.98      0  01:39       0.001     0.000
  WS02006240              0.01    553.64      0  01:39       0.001     0.000
  WS02006242              0.29    695.75      0  01:39       0.117     0.000
  WS02006243              0.01    637.93      0  01:40       0.003     0.000
  WS02006245              0.01    389.59      0  01:40       0.001     0.000
  WS02006247              0.01    547.79      0  01:40       0.002     0.000
  WS02006248              0.44    624.79      0  01:40       0.359     0.000
  WS02006249              0.82    863.12      0  01:48       1.044     0.000
  WS02006251              0.01    197.62      0  01:40       0.000     0.000
  WS02006252              0.01    245.63      0  00:00       0.000     0.000
  WS02006256              0.29    298.54      0  01:44       0.069     0.000
  WS02006284              0.01    120.73      0  01:40       0.000     0.000
  YS02001601              0.04     28.68      0  01:46       0.002     0.000
  YS02001602              0.01      0.33      0  01:43       0.000     0.000
  
  
  **********************
  Storage Volume Summary
  **********************
  
  --------------------------------------------------------------------------------------------------
                         Average     Avg  Evap Exfil       Maximum     Max    Time of Max    Maximum
                          Volume    Pcnt  Pcnt  Pcnt        Volume    Pcnt     Occurrence    Outflow
  Storage Unit           1000 m3    Full  Loss  Loss       1000 m3    Full    days hr:min        LPS
  --------------------------------------------------------------------------------------------------
  CC-storage               3.011      47     0     0         3.637      57       0  02:08    1783.53
  JK-storage               0.157      54     0     0         0.213      73       0  01:45    2300.00
  XR-storage               0.957      66     0     0         1.111      77       0  08:00     380.00
  
  
  ***********************
  Outfall Loading Summary
  ***********************
  
  -----------------------------------------------------------
                         Flow       Avg       Max       Total
                         Freq      Flow      Flow      Volume
  Outfall Node           Pcnt       LPS       LPS    10^6 ltr
  -----------------------------------------------------------
  CC-1                  13.08    683.00    683.00       2.046
  CC-2                   0.61    683.00    683.00       0.206
  JK-1                   9.05    672.48   1000.00       1.267
  JK-2                   0.14   1000.00   1000.00       0.048
  WSC                   99.96    501.05   1400.26      11.426
  -----------------------------------------------------------
  System                24.57   3539.52   1400.26      14.994
  
  
  ********************
  Link Flow Summary
  ********************
  
  -----------------------------------------------------------------------------
                                 Maximum  Time of Max   Maximum    Max/    Max/
                                  |Flow|   Occurrence   |Veloc|    Full    Full
  Link                 Type          LPS  days hr:min     m/sec    Flow   Depth
  -----------------------------------------------------------------------------
  1                    CONDUIT   1400.26     0  01:51      3.63    0.49    0.49
  HS02004478WS02006287 CONDUIT   1875.22     0  01:40      2.92    0.52    0.92
  HS02004479HS02004480 CONDUIT    273.35     0  01:39      0.39    0.26    1.00
  HS02004480HS02004478 CONDUIT   1626.86     0  01:41      2.42    6.85    1.00
  HS02004770HS02004777 CONDUIT    602.01     0  01:42      0.90    1.10    1.00
  HS02004777HS02004785 CONDUIT    609.47     0  01:42      1.02    0.75    0.94
  HS02004785HS02004788 CONDUIT    558.84     0  01:42      1.38    4.21    0.85
  HS02004788HS02004792 CONDUIT    725.06     0  01:44      1.45    0.48    0.91
  HS02004792HS02004799 CONDUIT   1288.38     0  01:43      1.84    0.79    1.00
  HS02004799HS02004480 CONDUIT   1388.51     0  01:43      1.98    1.75    1.00
  HS02004802HS02004478 CONDUIT    339.15     0  01:54      0.67    0.30    1.00
  HS02004807HS02004802 CONDUIT    324.23     0  01:54      0.60    0.62    1.00
  HS02004817HS02004807 CONDUIT    256.29     0  01:56      0.42    0.15    1.00
  HS02004817HS02004824 CONDUIT    255.56     0  01:56      0.51    0.12    0.93
  HS02004824HS02004830 CONDUIT    237.84     0  01:42      0.65    0.31    0.81
  HS02004830HS02004837 CONDUIT    239.47     0  01:42      0.82    0.24    0.68
  HS02004837HS02004842 CONDUIT    376.00     0  01:42      0.69    0.22    0.80
  HS02004842HS02004848 CONDUIT    345.15     0  01:43      0.67    0.20    0.77
  HS02004848HS02004852 CONDUIT    472.89     0  01:43      1.27    0.53    0.54
  HS02004852HS02004856 CONDUIT    458.07     0  01:44      1.13    0.52    0.58
  HS02004856HS02004862 CONDUIT    501.86     0  01:44      1.37    0.50    0.53
  HS02004862HS02004870 CONDUIT    579.26     0  01:44      1.65    0.63    0.51
  HS02004870HS02004876 CONDUIT    646.94     0  01:45      1.77    0.43    0.52
  HS02004876HS02004881 CONDUIT    730.21     0  01:45      2.64    7.77    0.40
  HS02004881HS02006253 CONDUIT    760.51     0  01:45      2.79    0.15    0.63
  HS02004901HS02004770 CONDUIT    114.84     0  01:40      0.17    0.43    1.00
  WS02001211WS02001212 CONDUIT    288.67     0  01:49      0.54    0.22    0.69
  WS02001212WS02001213 CONDUIT    304.37     0  01:50      1.04    0.47    0.57
  WS02001213WS02003059 CONDUIT    275.30     0  01:48      0.47    0.45    0.88
  WS02003059WS02003060 CONDUIT    317.40     0  01:43      0.67    0.21    0.79
  WS02003060WS02003069 CONDUIT   1405.30     0  01:51      2.19    0.55    0.58
  WS02003066WSF200     CONDUIT   1187.70     0  01:46      3.57    0.20    0.37
  WS02003067WS02003066 CONDUIT   1189.98     0  01:45      1.93    0.38    0.55
  WS02003069WS02003072 CONDUIT   1398.55     0  01:52      1.85    0.67    0.63
  WS02003072WS02003073 CONDUIT   1400.36     0  01:50      2.00    3.02    0.60
  WS02004138WS02004139 CONDUIT    190.00     0  00:32      2.15    0.04    0.42
  WS02004139WS02001211 CONDUIT    333.23     0  01:47      0.54    0.42    0.60
  WS02004401WS02004402 CONDUIT   1220.94     0  01:43      1.55    1.47    1.00
  WS02004402WS02004403 CONDUIT   1221.07     0  01:43      1.55    1.75    1.00
  WS02004403WS02004404 CONDUIT   1226.75     0  01:43      1.56    0.89    1.00
  WS02004404WS02004405 CONDUIT   1236.69     0  01:43      1.57   12.12    1.00
  WS02004405WS02004406 CONDUIT   1243.62     0  01:43      1.58    2.45    1.00
  WS02004406WS02004407 CONDUIT   1245.53     0  01:43      1.96    0.56    0.87
  WS02004407WS02004409 CONDUIT   1285.41     0  01:41      2.26    0.46    0.87
  WS02004409WS02004410 CONDUIT   1265.21     0  01:41      1.75    1.64    1.00
  WS02004410WS02004411 CONDUIT   1224.27     0  01:41      1.72    1.67    1.00
  WS02004411WS02004412 CONDUIT   1181.72     0  01:45      1.71    1.68    1.00
  WS02004412WS02004413 CONDUIT   1182.32     0  01:45      1.51    0.79    1.00
  WS02004413WS02003067 CONDUIT   1182.62     0  01:45      1.87    0.51    0.75
  WS02006109WS02006110 CONDUIT   1226.86     0  01:40      2.44    2.36    1.00
  WS02006110WS02006113 CONDUIT   1225.99     0  01:40      2.44    1.12    1.00
  WS02006111WS02006112 CONDUIT   1124.20     0  01:43      2.24    0.53    1.00
  WS02006112WS02006115 CONDUIT   1217.84     0  01:43      1.55    0.72    1.00
  WS02006113WS02006111 CONDUIT   1223.84     0  01:40      2.70    1.47    1.00
  WS02006115WS02006116 CONDUIT   1220.47     0  01:43      1.55    1.57    1.00
  WS02006116WS02004401 CONDUIT   1221.35     0  01:43      1.56    1.68    1.00
  WS02006228WS02006109 CONDUIT   1230.57     0  01:40      2.45    5.38    1.00
  WS02006229WS02006228 CONDUIT   1249.02     0  01:40      2.48    4.14    1.00
  WS02006230WS02006229 CONDUIT    586.47     0  01:44      1.52   13.05    1.00
  WS02006231WS02006230 CONDUIT    537.10     0  01:38      1.40    8.15    1.00
  WS02006232WS02006231 CONDUIT    531.30     0  01:39      1.38    1.11    1.00
  WS02006234WS02006232 CONDUIT    530.77     0  01:38      1.41    1.07    1.00
  WS02006235WS02006234 CONDUIT    541.62     0  01:39      1.42    5.71    1.00
  WS02006238WS02006235 CONDUIT    515.74     0  01:39      1.45    1.15    1.00
  WS02006239WS02006238 CONDUIT    538.65     0  01:39      1.43    1.72    1.00
  WS02006240WS02006239 CONDUIT    585.97     0  01:39      1.60    1.84    1.00
  WS02006242WS02006240 CONDUIT    514.12     0  01:39      1.34    2.04    1.00
  WS02006243WS02006242 CONDUIT    426.69     0  01:39      1.34    0.91    1.00
  WS02006245WS02006243 CONDUIT    371.48     0  00:05      1.39    1.10    1.00
  WS02006247WS02006245 CONDUIT    383.09     0  00:05      1.37    3.04    1.00
  WS02006248WS02006247 CONDUIT    385.59     0  00:04      1.38    0.84    1.00
  WS02006249WS02006248 CONDUIT    414.77     0  01:40      1.38    2.27    1.00
  WS02006251WS02006249 CONDUIT    869.78     0  01:48      2.26    2.51    1.00
  WS02006252WS02006251 CONDUIT    409.67     0  02:20      3.88    1.50    1.00
  WS02006253WS02006251 CONDUIT    770.16     0  01:45      2.00    2.31    1.00
  WS02006256WS02006235 CONDUIT    288.93     0  00:00      4.23    3.06    1.00
  WS02006280WS02006229 CONDUIT   1694.97     0  01:43      5.15    0.36    1.00
  WS02006284WS02006280 CONDUIT   1778.91     0  01:40      3.25    0.74    1.00
  WS02006287WS02006284 CONDUIT   1826.49     0  01:40      3.05    0.85    1.00
  WSF200WS02003060     CONDUIT   1284.31     0  01:43      3.03    0.29    0.48
  YS02001580YS02001583 CONDUIT     46.91     0  01:44      0.47    0.18    0.99
  YS02001583YS02001586 CONDUIT     75.86     0  01:43      0.34    0.11    0.99
  YS02001586YS02001590 CONDUIT    210.21     0  01:52      1.29    0.37    1.00
  YS02001590YS02001593 CONDUIT    210.16     0  01:52      1.02    1.32    1.00
  YS02001593YS02001596 CONDUIT    210.17     0  01:52      1.67    0.33    1.00
  YS02001596YS02001600 CONDUIT    210.20     0  01:52      1.17    0.41    1.00
  YS02001600YS02001601 CONDUIT    210.20     0  01:52      0.74    0.36    1.00
  YS02001601YS02001602 CONDUIT    520.28     0  01:47      1.84    1.88    1.00
  YS02001602YS02001605 CONDUIT    520.33     0  01:47      1.84   11.01    1.00
  YS02001605YS02001607 CONDUIT    520.25     0  01:47      1.84    2.85    1.00
  YS02001607YS02001610 CONDUIT    520.39     0  01:47      0.73    0.49    1.00
  YS02001610YS02001613 CONDUIT    520.64     0  01:47      0.69    0.60    1.00
  YS02001613YS02001616 CONDUIT    520.52     0  01:47      0.73    0.45    1.00
  YS02001616YS02001619 CONDUIT    520.88     0  01:46      0.76    0.90    1.00
  YS02001619YS02001622 CONDUIT    839.04     0  01:45      1.45    1.24    1.00
  YS02001622YS02001625 CONDUIT    843.06     0  01:45      1.07    0.45    1.00
  YS02001625YS02001629 CONDUIT    843.50     0  01:45      1.10    0.40    0.96
  YS02001629YS02163301 CONDUIT    847.94     0  01:45      1.08    1.04    1.00
  YS02001633YS02163601 CONDUIT   1102.85     0  01:45      1.40    1.16    1.00
  YS02001641YS02001644 CONDUIT   1103.46     0  01:45      1.40    3.57    1.00
  YS02001644YS02001647 CONDUIT   1319.86     0  01:45      1.88    0.78    0.84
  YS02001647YS02001649 CONDUIT   1326.01     0  01:45      2.24    0.70    0.71
  YS02001649YS02001757 CONDUIT   1523.63     0  01:46      2.40    0.92    0.75
  YS02001652YS02001649 CONDUIT    234.76     0  01:39      1.10    0.12    0.66
  YS02001655YS02001652 CONDUIT    250.60     0  01:41      1.75    0.12    0.40
  YS02001658YS02001655 CONDUIT    243.80     0  01:40      1.84    0.10    0.24
  YS02001661YS02001658 CONDUIT    243.97     0  01:40      1.99    0.10    0.21
  YS02001664YS02001661 CONDUIT    244.17     0  01:40      1.76    0.08    0.23
  YS02001745YS02001748 CONDUIT    163.81     0  01:39      1.85    0.06    0.17
  YS02001748YS02001751 CONDUIT    164.06     0  01:39      1.55    0.08    0.19
  YS02001751YS02001754 CONDUIT    164.04     0  01:40      1.58    0.08    0.26
  YS02001754YS02001757 CONDUIT    187.54     0  01:42      0.83    0.08    0.58
  YS02001757CaochengTiaoxuchi CONDUIT   2023.49     0  01:46      2.97    0.88    0.87
  YS02001759YS02001757 CONDUIT    450.39     0  01:41      1.28    0.32    0.71
  YS02001762YS02001759 CONDUIT    287.99     0  01:48      0.68    0.33    0.65
  YS02001765YS02001762 CONDUIT    274.26     0  01:48      0.83    0.26    0.61
  YS02001767YS02001765 CONDUIT    281.30     0  01:40      0.94    0.35    0.57
  YS02001770YS02001767 CONDUIT    300.53     0  01:41      0.90    1.19    0.55
  YS02001774YS02001770 CONDUIT     43.46     0  01:36      0.22    0.03    0.59
  YS02001779YS02001774 CONDUIT     25.89     0  01:50      0.10    0.01    0.51
  YS02001783YS02001784 CONDUIT    773.63     0  01:46      1.65    1.07    0.88
  YS02001784YS02001785 CONDUIT    774.41     0  01:46      1.79    1.80    0.80
  YS02001786YS02001788 CONDUIT    775.15     0  01:46      2.24    1.49    0.65
  YS02001788YS02001790 CONDUIT    777.00     0  01:46      2.32    0.57    0.63
  YS02001790YS02001791 CONDUIT    806.31     0  01:47      2.84    0.88    0.55
  YS02001791YS02001793 CONDUIT    778.42     0  01:46      5.80    0.33    0.31
  YS02001793JiankangQianchi CONDUIT    778.29     0  01:46      1.63    0.06    0.58
  YS02001882YS02001884 CONDUIT     23.37     0  01:39      0.14    0.03    0.75
  YS02001884YS02001887 CONDUIT     67.59     0  01:39      0.15    0.09    0.85
  YS02001887YS02001890 CONDUIT    231.71     0  01:42      0.38    0.40    0.90
  YS02001890YS02001895 CONDUIT    225.86     0  01:42      0.37    0.11    0.82
  YS02001895YS02001898 CONDUIT    214.40     0  01:43      0.51    0.37    0.69
  YS02001898YS02001901 CONDUIT    202.46     0  01:42      0.34    0.13    0.77
  YS02001901YS02001904 CONDUIT    202.37     0  01:49      0.40    0.31    0.82
  YS02001904YS02001907 CONDUIT    212.49     0  01:51      0.30    0.07    0.91
  YS02001907YS02006553 CONDUIT    560.93     0  01:49      0.62    0.66    1.00
  YS02001910YS02001907 CONDUIT    364.46     0  01:45      0.49    0.21    0.97
  YS02001915YS02001910 CONDUIT    364.33     0  01:45      0.55    0.18    0.83
  YS02001918YS02001915 CONDUIT    150.44     0  01:50      0.44    0.08    0.55
  YS02001920YS02001918 CONDUIT    143.01     0  01:45      0.73    0.14    0.41
  YS02001923YS02001920 CONDUIT    134.84     0  01:45      0.81    0.06    0.31
  YS02001926YS02001923 CONDUIT    122.29     0  01:43      0.83    0.17    0.24
  YS02001929YS02001926 CONDUIT    122.46     0  01:43      0.91    0.06    0.23
  YS02006553YS02006556 CONDUIT    560.91     0  01:49      0.71    0.48    1.00
  YS02006556YS02006558 CONDUIT    562.50     0  01:49      0.72    0.44    1.00
  YS02006558YS02006561 CONDUIT    773.94     0  01:46      3.14    1.71    0.82
  YS02006561YS02001783 CONDUIT    774.42     0  01:46      2.12    0.40    0.68
  YS02163301YS02001633 CONDUIT    847.66     0  01:45      1.08    0.80    1.00
  YS02163601YS02164001 CONDUIT   1103.56     0  01:45      1.41    0.98    1.00
  YS02164001YS02001641 CONDUIT   1103.30     0  01:45      1.40    1.51    1.00
  YSB1154YSB6556       CONDUIT    136.14     0  01:41      0.35    0.24    1.00
  YSB1171HS02004479    CONDUIT    261.63     0  01:39      0.54    0.17    1.00
  YSB1174YSB1171       CONDUIT    125.24     0  01:39      0.33    0.19    1.00
  YSB6556YSB1171       CONDUIT    137.56     0  01:41      0.36    0.14    1.00
  CC-R1                PUMP       683.00     0  00:00              1.00
  CC-R2                PUMP       683.00     0  00:00              1.00
  CC-S1                PUMP       200.00     0  00:00              1.00
  CC-S2                PUMP       200.00     0  00:00              1.00
  JK-R1                PUMP      1000.00     0  00:00              1.00
  JK-R2                PUMP      1000.00     0  00:00              1.00
  JK-S                 PUMP       300.00     0  00:00              1.00
  XR-1                 PUMP        95.00     0  00:00              1.00
  XR-2                 PUMP        95.00     0  00:00              1.00
  XR-3                 PUMP        95.00     0  00:00              1.00
  XR-4                 PUMP        95.00     0  00:00              1.00
  
  
  ***************************
  Flow Classification Summary
  ***************************
  
  -------------------------------------------------------------------------------------
                      Adjusted    ---------- Fraction of Time in Flow Class ---------- 
                       /Actual         Up    Down  Sub   Sup   Up    Down  Norm  Inlet 
  Conduit               Length    Dry  Dry   Dry   Crit  Crit  Crit  Crit  Ltd   Ctrl  
  -------------------------------------------------------------------------------------
  1                       1.00   0.00  0.00  0.00  0.00  1.00  0.00  0.00  0.40  0.00
  HS02004478WS02006287    1.00   0.12  0.00  0.00  0.56  0.31  0.00  0.00  0.64  0.00
  HS02004479HS02004480    1.00   0.03  0.00  0.00  0.97  0.00  0.00  0.00  0.12  0.00
  HS02004480HS02004478    1.00   0.09  0.00  0.00  0.51  0.00  0.00  0.39  0.00  0.00
  HS02004770HS02004777    1.00   0.00  0.09  0.00  0.91  0.00  0.00  0.00  0.04  0.00
  HS02004777HS02004785    1.00   0.00  0.00  0.00  1.00  0.00  0.00  0.00  0.14  0.00
  HS02004785HS02004788    1.00   0.00  0.00  0.00  1.00  0.00  0.00  0.00  0.00  0.00
  HS02004788HS02004792    1.00   0.00  0.00  0.00  0.99  0.01  0.00  0.00  0.96  0.00
  HS02004792HS02004799    1.00   0.00  0.00  0.00  0.99  0.01  0.00  0.00  0.93  0.00
  HS02004799HS02004480    1.00   0.00  0.02  0.00  0.88  0.00  0.10  0.00  0.00  0.00
  HS02004802HS02004478    1.00   0.09  0.01  0.00  0.90  0.00  0.00  0.00  0.03  0.00
  HS02004807HS02004802    1.00   0.09  0.00  0.00  0.90  0.00  0.00  0.01  0.00  0.00
  HS02004817HS02004807    1.00   0.00  0.09  0.00  0.91  0.00  0.00  0.00  0.01  0.00
  HS02004817HS02004824    1.00   0.00  0.00  0.00  1.00  0.00  0.00  0.00  0.91  0.00
  HS02004824HS02004830    1.00   0.00  0.00  0.00  1.00  0.00  0.00  0.00  0.00  0.00
  HS02004830HS02004837    1.00   0.00  0.00  0.00  1.00  0.00  0.00  0.00  0.94  0.00
  HS02004837HS02004842    1.00   0.00  0.00  0.00  1.00  0.00  0.00  0.00  0.11  0.00
  HS02004842HS02004848    1.00   0.00  0.09  0.00  0.91  0.00  0.00  0.00  0.63  0.00
  HS02004848HS02004852    1.00   0.09  0.00  0.00  0.91  0.00  0.00  0.00  0.76  0.00
  HS02004852HS02004856    1.00   0.09  0.01  0.00  0.90  0.00  0.00  0.00  0.76  0.00
  HS02004856HS02004862    1.00   0.00  0.13  0.00  0.87  0.00  0.00  0.00  0.78  0.00
  HS02004862HS02004870    1.00   0.00  0.00  0.00  1.00  0.00  0.00  0.00  0.04  0.00
  HS02004870HS02004876    1.00   0.00  0.00  0.00  0.99  0.01  0.00  0.00  0.92  0.00
  HS02004876HS02004881    1.00   0.01  0.00  0.00  0.79  0.19  0.00  0.00  0.00  0.00
  HS02004881HS02006253    1.00   0.03  0.01  0.00  0.39  0.02  0.00  0.55  0.20  0.00
  HS02004901HS02004770    1.00   0.09  0.00  0.00  0.91  0.00  0.00  0.00  0.01  0.00
  WS02001211WS02001212    1.00   0.00  0.02  0.00  0.98  0.00  0.00  0.00  0.00  0.00
  WS02001212WS02001213    1.00   0.02  0.00  0.00  0.36  0.00  0.62  0.00  0.00  0.00
  WS02001213WS02003059    1.00   0.00  0.00  0.00  1.00  0.00  0.00  0.00  0.00  0.00
  WS02003059WS02003060    1.00   0.00  0.00  0.00  1.00  0.00  0.00  0.00  0.03  0.00
  WS02003060WS02003069    1.00   0.00  0.00  0.00  0.99  0.01  0.00  0.00  0.52  0.00
  WS02003066WSF200        1.00   0.09  0.00  0.00  0.00  0.91  0.00  0.00  0.70  0.00
  WS02003067WS02003066    1.00   0.07  0.01  0.00  0.92  0.00  0.00  0.00  0.00  0.00
  WS02003069WS02003072    1.00   0.00  0.00  0.00  1.00  0.00  0.00  0.00  0.75  0.00
  WS02003072WS02003073    1.00   0.00  0.00  0.00  0.00  0.00  0.00  1.00  0.00  0.00
  WS02004138WS02004139    1.00   0.00  0.00  0.00  0.98  0.00  0.00  0.01  0.98  0.00
  WS02004139WS02001211    1.00   0.00  0.00  0.00  1.00  0.00  0.00  0.00  0.00  0.00
  WS02004401WS02004402    1.00   0.02  0.00  0.00  0.98  0.00  0.00  0.00  0.00  0.00
  WS02004402WS02004403    1.00   0.02  0.00  0.00  0.98  0.00  0.00  0.00  0.00  0.00
  WS02004403WS02004404    1.00   0.00  0.02  0.00  0.98  0.00  0.00  0.00  0.00  0.00
  WS02004404WS02004405    1.00   0.00  0.00  0.00  1.00  0.00  0.00  0.00  0.01  0.00
  WS02004405WS02004406    1.00   0.00  0.00  0.00  1.00  0.00  0.00  0.00  0.00  0.00
  WS02004406WS02004407    1.00   0.00  0.03  0.00  0.97  0.00  0.00  0.00  0.00  0.00
  WS02004407WS02004409    1.00   0.03  0.00  0.00  0.95  0.01  0.00  0.00  0.89  0.00
  WS02004409WS02004410    1.00   0.03  0.00  0.00  0.97  0.00  0.00  0.00  0.02  0.00
  WS02004410WS02004411    1.00   0.04  0.00  0.00  0.96  0.00  0.00  0.00  0.00  0.00
  WS02004411WS02004412    1.00   0.04  0.00  0.00  0.96  0.00  0.00  0.00  0.00  0.00
  WS02004412WS02004413    1.00   0.04  0.00  0.00  0.96  0.00  0.00  0.00  0.01  0.00
  WS02004413WS02003067    1.00   0.04  0.03  0.00  0.00  0.00  0.93  0.00  0.00  0.00
  WS02006109WS02006110    1.00   0.00  0.01  0.00  0.99  0.00  0.01  0.00  0.00  0.00
  WS02006110WS02006113    1.00   0.01  0.01  0.00  0.99  0.00  0.00  0.00  0.00  0.00
  WS02006111WS02006112    1.00   0.01  0.00  0.00  0.98  0.00  0.00  0.00  0.85  0.00
  WS02006112WS02006115    1.00   0.01  0.00  0.00  0.98  0.00  0.00  0.00  0.00  0.00
  WS02006113WS02006111    1.00   0.01  0.00  0.00  0.14  0.84  0.00  0.00  0.07  0.00
  WS02006115WS02006116    1.00   0.02  0.00  0.00  0.98  0.00  0.00  0.01  0.00  0.00
  WS02006116WS02004401    1.00   0.02  0.00  0.00  0.98  0.00  0.00  0.00  0.00  0.00
  WS02006228WS02006109    1.00   0.00  0.00  0.00  1.00  0.00  0.00  0.00  0.00  0.00
  WS02006229WS02006228    1.00   0.00  0.00  0.00  0.99  0.00  0.00  0.01  0.00  0.00
  WS02006230WS02006229    1.00   0.00  0.00  0.00  0.99  0.00  0.00  0.01  0.02  0.00
  WS02006231WS02006230    1.00   0.00  0.00  0.00  0.37  0.00  0.63  0.00  0.00  0.00
  WS02006232WS02006231    1.00   0.00  0.00  0.00  0.99  0.00  0.00  0.00  0.00  0.00
  WS02006234WS02006232    1.00   0.00  0.00  0.00  1.00  0.00  0.00  0.00  0.00  0.00
  WS02006235WS02006234    1.00   0.00  0.00  0.00  0.79  0.00  0.21  0.00  0.00  0.00
  WS02006238WS02006235    1.00   0.00  0.00  0.00  1.00  0.00  0.00  0.00  0.00  0.00
  WS02006239WS02006238    1.00   0.00  0.00  0.00  1.00  0.00  0.00  0.00  0.03  0.00
  WS02006240WS02006239    1.00   0.00  0.00  0.00  0.60  0.00  0.00  0.40  0.01  0.00
  WS02006242WS02006240    1.00   0.00  0.00  0.00  0.98  0.00  0.01  0.00  0.00  0.00
  WS02006243WS02006242    1.00   0.00  0.00  0.00  0.99  0.00  0.00  0.01  0.69  0.00
  WS02006245WS02006243    1.00   0.00  0.00  0.00  0.93  0.00  0.00  0.07  0.01  0.00
  WS02006247WS02006245    1.00   0.00  0.00  0.00  0.97  0.00  0.00  0.03  0.00  0.00
  WS02006248WS02006247    1.00   0.00  0.00  0.00  0.99  0.00  0.00  0.01  0.72  0.00
  WS02006249WS02006248    1.00   0.00  0.00  0.00  0.47  0.00  0.53  0.00  0.00  0.00
  WS02006251WS02006249    1.00   0.00  0.00  0.00  1.00  0.00  0.00  0.00  0.72  0.00
  WS02006252WS02006251    1.00   0.00  0.01  0.00  0.14  0.00  0.85  0.00  0.00  0.00
  WS02006253WS02006251    1.00   0.00  0.00  0.00  1.00  0.00  0.00  0.00  0.00  0.00
  WS02006256WS02006235    1.00   0.00  0.00  0.00  1.00  0.00  0.00  0.00  0.00  0.00
  WS02006280WS02006229    1.00   0.10  0.00  0.00  0.09  0.04  0.00  0.77  0.01  0.00
  WS02006284WS02006280    1.00   0.10  0.00  0.00  0.05  0.01  0.00  0.84  0.00  0.00
  WS02006287WS02006284    1.00   0.07  0.05  0.00  0.47  0.40  0.00  0.01  0.71  0.00
  WSF200WS02003060        1.00   0.00  0.09  0.00  0.57  0.34  0.00  0.00  0.66  0.00
  YS02001580YS02001583    1.00   0.16  0.66  0.00  0.18  0.00  0.00  0.00  0.76  0.00
  YS02001583YS02001586    1.00   0.43  0.25  0.00  0.32  0.00  0.00  0.00  0.76  0.00
  YS02001586YS02001590    1.00   0.09  0.00  0.00  0.46  0.03  0.00  0.42  0.30  0.00
  YS02001590YS02001593    1.00   0.09  0.01  0.00  0.06  0.00  0.84  0.00  0.00  0.00
  YS02001593YS02001596    1.00   0.10  0.00  0.00  0.08  0.01  0.00  0.82  0.01  0.00
  YS02001596YS02001600    1.00   0.10  0.00  0.00  0.14  0.03  0.00  0.73  0.05  0.00
  YS02001600YS02001601    1.00   0.09  0.01  0.00  0.90  0.00  0.00  0.00  0.67  0.00
  YS02001601YS02001602    1.00   0.09  0.01  0.00  0.90  0.00  0.00  0.00  0.00  0.00
  YS02001602YS02001605    1.00   0.10  0.00  0.00  0.90  0.00  0.00  0.00  0.00  0.00
  YS02001605YS02001607    1.00   0.10  0.00  0.00  0.90  0.00  0.00  0.00  0.00  0.00
  YS02001607YS02001610    1.00   0.10  0.01  0.00  0.90  0.00  0.00  0.00  0.02  0.00
  YS02001610YS02001613    1.00   0.09  0.00  0.00  0.91  0.00  0.00  0.00  0.02  0.00
  YS02001613YS02001616    1.00   0.09  0.00  0.00  0.91  0.00  0.00  0.00  0.01  0.00
  YS02001616YS02001619    1.00   0.09  0.00  0.00  0.91  0.00  0.00  0.00  0.00  0.00
  YS02001619YS02001622    1.00   0.09  0.00  0.00  0.91  0.00  0.00  0.00  0.39  0.00
  YS02001622YS02001625    1.00   0.09  0.00  0.00  0.91  0.00  0.00  0.00  0.06  0.00
  YS02001625YS02001629    1.00   0.09  0.05  0.00  0.09  0.00  0.77  0.00  0.00  0.00
  YS02001629YS02163301    1.00   0.12  0.01  0.00  0.87  0.00  0.00  0.00  0.00  0.00
  YS02001633YS02163601    1.00   0.00  0.00  0.00  1.00  0.00  0.00  0.00  0.16  0.00
  YS02001641YS02001644    1.00   0.00  0.00  0.00  1.00  0.00  0.00  0.00  0.00  0.00
  YS02001644YS02001647    1.00   0.00  0.13  0.00  0.87  0.00  0.00  0.00  0.00  0.00
  YS02001647YS02001649    1.00   0.00  0.13  0.00  0.80  0.07  0.00  0.00  0.27  0.00
  YS02001649YS02001757    1.00   0.00  0.00  0.00  1.00  0.00  0.00  0.00  0.20  0.00
  YS02001652YS02001649    1.00   0.00  0.00  0.00  0.97  0.03  0.00  0.00  0.16  0.00
  YS02001655YS02001652    1.00   0.00  0.00  0.00  0.60  0.05  0.00  0.35  0.65  0.00
  YS02001658YS02001655    1.00   0.00  0.11  0.00  0.45  0.44  0.00  0.00  0.80  0.00
  YS02001661YS02001658    1.00   0.11  0.00  0.00  0.38  0.51  0.00  0.00  0.79  0.00
  YS02001664YS02001661    1.00   0.09  0.00  0.00  0.81  0.10  0.00  0.00  0.87  0.00
  YS02001745YS02001748    1.00   0.00  0.00  0.00  0.00  0.00  0.00  1.00  0.00  0.00
  YS02001748YS02001751    1.00   0.00  0.00  0.00  0.60  0.40  0.00  0.00  0.85  0.00
  YS02001751YS02001754    1.00   0.00  0.00  0.00  0.41  0.03  0.00  0.56  0.45  0.00
  YS02001754YS02001757    1.00   0.00  0.00  0.00  1.00  0.00  0.00  0.00  0.23  0.00
  YS02001757CaochengTiaoxuchi    1.00   0.00  0.00  0.00  0.98  0.02  0.00  0.00  0.20  0.00
  YS02001759YS02001757    1.00   0.00  0.00  0.00  1.00  0.00  0.00  0.00  0.06  0.00
  YS02001762YS02001759    1.00   0.00  0.00  0.00  1.00  0.00  0.00  0.00  0.05  0.00
  YS02001765YS02001762    1.00   0.00  0.00  0.00  1.00  0.00  0.00  0.00  0.17  0.00
  YS02001767YS02001765    1.00   0.00  0.00  0.00  1.00  0.00  0.00  0.00  0.00  0.00
  YS02001770YS02001767    1.00   0.00  0.00  0.00  1.00  0.00  0.00  0.00  0.00  0.00
  YS02001774YS02001770    1.00   0.00  0.10  0.00  0.90  0.00  0.00  0.00  0.04  0.00
  YS02001779YS02001774    1.00   0.00  0.00  0.00  1.00  0.00  0.00  0.00  0.83  0.00
  YS02001783YS02001784    1.00   0.00  0.14  0.00  0.86  0.00  0.00  0.00  0.60  0.00
  YS02001784YS02001785    1.00   0.00  0.00  0.00  1.00  0.00  0.00  0.00  0.18  0.00
  YS02001786YS02001788    1.00   0.00  0.00  0.00  0.64  0.36  0.00  0.00  0.00  0.00
  YS02001788YS02001790    1.00   0.00  0.00  0.00  0.14  0.86  0.00  0.00  0.91  0.00
  YS02001790YS02001791    1.00   0.00  0.00  0.00  0.01  0.99  0.00  0.00  0.16  0.00
  YS02001791YS02001793    1.00   0.00  0.00  0.00  0.00  1.00  0.00  0.00  0.00  0.00
  YS02001793JiankangQianchi    1.00   0.00  0.00  0.00  1.00  0.00  0.00  0.00  1.00  0.00
  YS02001882YS02001884    1.00   0.12  0.01  0.00  0.87  0.00  0.00  0.00  0.00  0.00
  YS02001884YS02001887    1.00   0.04  0.04  0.00  0.92  0.00  0.00  0.00  0.00  0.00
  YS02001887YS02001890    1.00   0.00  0.00  0.00  0.98  0.00  0.02  0.00  0.00  0.00
  YS02001890YS02001895    1.00   0.00  0.13  0.00  0.87  0.00  0.00  0.00  0.00  0.00
  YS02001895YS02001898    1.00   0.13  0.00  0.00  0.86  0.00  0.01  0.00  0.00  0.00
  YS02001898YS02001901    1.00   0.13  0.00  0.00  0.87  0.00  0.00  0.00  0.01  0.00
  YS02001901YS02001904    1.00   0.13  0.00  0.00  0.87  0.00  0.00  0.00  0.00  0.00
  YS02001904YS02001907    1.00   0.00  0.13  0.00  0.87  0.00  0.00  0.00  0.00  0.00
  YS02001907YS02006553    1.00   0.00  0.02  0.00  0.98  0.00  0.00  0.00  0.00  0.00
  YS02001910YS02001907    1.00   0.00  0.00  0.00  0.98  0.00  0.00  0.02  0.12  0.00
  YS02001915YS02001910    1.00   0.00  0.00  0.00  0.97  0.03  0.00  0.00  0.17  0.00
  YS02001918YS02001915    1.00   0.00  0.00  0.00  0.98  0.01  0.00  0.00  0.81  0.00
  YS02001920YS02001918    1.00   0.00  0.00  0.00  1.00  0.00  0.00  0.00  0.00  0.00
  YS02001923YS02001920    1.00   0.00  0.00  0.00  1.00  0.00  0.00  0.00  1.00  0.00
  YS02001926YS02001923    1.00   0.00  0.05  0.00  0.00  0.00  0.95  0.00  0.00  0.00
  YS02001929YS02001926    1.00   0.00  0.09  0.00  0.91  0.00  0.00  0.00  0.87  0.00
  YS02006553YS02006556    1.00   0.01  0.00  0.00  0.99  0.00  0.00  0.00  0.03  0.00
  YS02006556YS02006558    1.00   0.00  0.00  0.00  1.00  0.00  0.00  0.00  0.00  0.00
  YS02006558YS02006561    1.00   0.14  0.00  0.00  0.00  0.86  0.00  0.00  0.19  0.00
  YS02006561YS02001783    1.00   0.14  0.00  0.00  0.03  0.83  0.00  0.00  0.75  0.00
  YS02163301YS02001633    1.00   0.00  0.12  0.00  0.88  0.00  0.00  0.00  0.00  0.00
  YS02163601YS02164001    1.00   0.00  0.06  0.00  0.94  0.00  0.00  0.00  0.00  0.00
  YS02164001YS02001641    1.00   0.00  0.05  0.00  0.94  0.00  0.00  0.00  0.06  0.00
  YSB1154YSB6556          1.00   0.09  0.00  0.00  0.91  0.00  0.00  0.00  0.02  0.00
  YSB1171HS02004479       1.00   0.03  0.00  0.00  0.96  0.00  0.00  0.01  0.11  0.00
  YSB1174YSB1171          1.00   0.03  0.03  0.00  0.93  0.00  0.00  0.00  0.00  0.00
  YSB6556YSB1171          1.00   0.03  0.06  0.00  0.91  0.00  0.00  0.00  0.00  0.00
  
  
  *************************
  Conduit Surcharge Summary
  *************************
  
  ----------------------------------------------------------------------------
                                                           Hours        Hours 
                         --------- Hours Full --------   Above Full   Capacity
  Conduit                Both Ends  Upstream  Dnstream   Normal Flow   Limited
  ----------------------------------------------------------------------------
  HS02004478WS02006287        0.01      0.01      0.16      0.01         0.01
  HS02004479HS02004480        0.20      0.20      0.21      0.01         0.01
  HS02004480HS02004478        0.09      0.19      0.09      1.02         0.09
  HS02004770HS02004777        0.07      0.07      0.08      0.07         0.02
  HS02004777HS02004785        0.01      0.01      0.08      0.01         0.01
  HS02004785HS02004788        0.01      0.01      0.01      0.72         0.01
  HS02004788HS02004792        0.01      0.01      0.16      0.01         0.01
  HS02004792HS02004799        0.16      0.16      0.25      0.01         0.01
  HS02004799HS02004480        0.19      0.19      0.25      0.32         0.01
  HS02004802HS02004478        0.11      0.11      0.18      0.01         0.01
  HS02004807HS02004802        0.15      0.15      0.17      0.01         0.01
  HS02004817HS02004807        0.15      0.15      0.57      0.01         0.01
  HS02004817HS02004824        0.01      0.01      0.57      0.01         0.01
  HS02004837HS02004842        0.01      0.01      0.06      0.01         0.01
  HS02004842HS02004848        0.01      0.01      0.06      0.01         0.01
  HS02004876HS02004881        0.01      0.01      0.01      0.72         0.01
  HS02004881HS02006253        0.01      0.01      0.81      0.01         0.01
  HS02004901HS02004770        0.07      0.07      0.08      0.01         0.01
  WS02003072WS02003073        0.01      0.01      0.01      1.78         0.01
  WS02004401WS02004402        0.95      0.95      0.97      0.71         0.67
  WS02004402WS02004403        0.97      0.97      0.98      0.96         0.94
  WS02004403WS02004404        0.98      0.98      1.08      0.01         0.01
  WS02004404WS02004405        1.05      1.08      1.05      2.35         1.05
  WS02004405WS02004406        1.03      1.05      1.03      1.31         1.03
  WS02004406WS02004407        0.01      0.01      1.03      0.01         0.01
  WS02004407WS02004409        0.01      0.01      0.32      0.01         0.01
  WS02004409WS02004410        0.30      0.32      0.30      0.79         0.30
  WS02004410WS02004411        0.27      0.30      0.27      0.86         0.27
  WS02004411WS02004412        0.21      0.27      0.21      0.95         0.21
  WS02004412WS02004413        0.21      0.21      0.60      0.01         0.01
  WS02004413WS02003067        0.01      0.01      0.60      0.01         0.01
  WS02006109WS02006110        1.31      1.31      1.55      1.31         0.01
  WS02006110WS02006113        0.57      0.57      1.54      0.06         0.01
  WS02006111WS02006112        0.55      0.55      1.71      0.01         0.01
  WS02006112WS02006115        0.79      0.79      1.34      0.01         0.01
  WS02006113WS02006111        0.56      0.57      0.56      0.67         0.56
  WS02006115WS02006116        0.80      0.80      0.80      0.80         0.77
  WS02006116WS02004401        0.95      0.95      0.95      0.92         0.89
  WS02006228WS02006109        1.54      1.55      1.54      1.75         1.54
  WS02006229WS02006228        1.53      1.54      1.53      1.69         1.53
  WS02006230WS02006229        1.60      1.64      1.60      3.05         1.17
  WS02006231WS02006230        1.06      1.06      1.16      2.38         0.38
  WS02006232WS02006231        1.13      1.13      1.29      0.01         0.05
  WS02006234WS02006232        1.24      1.24      1.29      0.01         0.01
  WS02006235WS02006234        1.20      1.20      1.25      2.02         0.35
  WS02006238WS02006235        1.26      1.26      1.27      0.01         0.09
  WS02006239WS02006238        1.26      1.26      1.27      0.42         0.13
  WS02006240WS02006239        1.13      1.13      1.15      0.39         0.11
  WS02006242WS02006240        1.11      1.11      1.21      0.95         0.29
  WS02006243WS02006242        1.02      1.02      1.16      0.01         0.01
  WS02006245WS02006243        0.99      0.99      1.01      0.11         0.07
  WS02006247WS02006245        0.98      1.00      0.98      1.56         0.57
  WS02006248WS02006247        0.96      0.96      0.99      0.01         0.01
  WS02006249WS02006248        0.95      0.95      0.96      1.05         0.01
  WS02006251WS02006249        0.95      0.95      0.96      0.69         0.61
  WS02006252WS02006251        0.90      0.90      0.93      0.25         0.01
  WS02006253WS02006251        0.94      0.94      0.96      0.28         0.02
  WS02006256WS02006235        2.17      2.19      7.97      0.28         0.01
  WS02006280WS02006229        0.25      0.25      0.31      0.01         0.01
  WS02006284WS02006280        0.18      0.18      0.24      0.01         0.01
  WS02006287WS02006284        0.07      0.07      0.19      0.01         0.01
  YS02001580YS02001583        0.01      0.01      0.01      0.01         0.01
  YS02001583YS02001586        0.01      0.01      0.12      0.01         0.01
  YS02001586YS02001590        0.13      0.13      0.22      0.01         0.01
  YS02001590YS02001593        0.22      0.22      0.24      0.20         0.01
  YS02001593YS02001596        0.23      0.23      0.32      0.01         0.01
  YS02001596YS02001600        0.35      0.35      0.41      0.01         0.01
  YS02001600YS02001601        0.46      0.46      0.68      0.01         0.01
  YS02001601YS02001602        0.59      0.59      0.72      0.44         0.01
  YS02001602YS02001605        0.55      0.55      0.59      1.59         0.01
  YS02001605YS02001607        0.52      0.55      0.52      0.64         0.52
  YS02001607YS02001610        0.14      0.14      0.17      0.01         0.01
  YS02001610YS02001613        0.13      0.13      0.17      0.01         0.01
  YS02001613YS02001616        0.07      0.07      0.13      0.01         0.01
  YS02001616YS02001619        0.05      0.05      0.07      0.01         0.01
  YS02001619YS02001622        0.03      0.05      0.03      0.24         0.03
  YS02001622YS02001625        0.03      0.03      0.26      0.01         0.01
  YS02001625YS02001629        0.01      0.01      0.26      0.01         0.01
  YS02001629YS02163301        0.24      0.24      0.25      0.09         0.07
  YS02001633YS02163601        0.27      0.27      0.29      0.15         0.15
  YS02001641YS02001644        0.09      0.16      0.09      0.77         0.09
  YS02001644YS02001647        0.01      0.01      0.09      0.01         0.01
  YS02001757CaochengTiaoxuchi        0.01      0.01      6.20      0.01         0.01
  YS02001770YS02001767        0.01      0.01      0.01      0.11         0.01
  YS02001783YS02001784        0.01      0.01      0.01      0.16         0.01
  YS02001784YS02001785        0.01      0.01      0.01      0.35         0.01
  YS02001786YS02001788        0.01      0.01      0.01      0.25         0.01
  YS02001793JiankangQianchi        0.01      0.01      7.70      0.01         0.01
  YS02001904YS02001907        0.01      0.01      0.24      0.01         0.01
  YS02001907YS02006553        0.36      0.36      0.40      0.01         0.01
  YS02001910YS02001907        0.01      0.01      0.21      0.01         0.01
  YS02006553YS02006556        0.12      0.12      0.23      0.01         0.01
  YS02006556YS02006558        0.18      0.18      0.25      0.01         0.01
  YS02006558YS02006561        0.01      0.10      0.01      0.32         0.01
  YS02163301YS02001633        0.25      0.25      0.28      0.01         0.01
  YS02163601YS02164001        0.18      0.18      0.29      0.01         0.01
  YS02164001YS02001641        0.16      0.18      0.16      0.33         0.16
  YSB1154YSB6556              0.24      0.24      0.34      0.01         0.01
  YSB1171HS02004479           0.15      0.15      0.34      0.01         0.01
  YSB1174YSB1171              0.28      0.28      0.50      0.01         0.01
  YSB6556YSB1171              0.24      0.24      0.61      0.01         0.01
  
  
  ***************
  Pumping Summary
  ***************
  
  ---------------------------------------------------------------------------------------------------------
                                                  Min       Avg       Max     Total     Power    % Time Off
                        Percent   Number of      Flow      Flow      Flow    Volume     Usage    Pump Curve
  Pump                 Utilized   Start-Ups       LPS       LPS       LPS  10^6 ltr     Kw-hr    Low   High
  ---------------------------------------------------------------------------------------------------------
  CC-R1                   10.40           5      0.00    683.00    683.00     2.046     37.27    0.0   10.0
  CC-R2                    1.04           1      0.00    683.00    683.00     0.205      3.46    0.0  100.0
  CC-S1                   97.92           2      0.00     39.15    200.00     0.650      3.65    0.0    0.0
  CC-S2                   97.24           4      0.00     49.15    200.00     0.730      4.19    0.0    0.0
  JK-R1                    5.43          10      0.00    672.48   1000.00     1.267     14.50    0.0    0.0
  JK-R2                    0.16           1      0.00   1000.00   1000.00     0.047      0.36    0.0    0.0
  JK-S                    21.69           8      0.00     28.32    300.00     0.329      4.51    0.0    0.0
  XR-1                    97.91           2      0.00     95.00     95.00     2.679      9.63    0.0    0.0
  XR-2                    93.95           2      0.00     95.00     95.00     2.570      8.79    0.0    0.0
  XR-3                     0.00           1      0.00     95.00     95.00     0.000      0.00    0.0    0.0
  XR-4                     0.00           1      0.00     95.00     95.00     0.000      0.00    0.0    0.0
  

  Analysis begun on:  Sun Jun 25 21:03:11 2023
  Analysis ended on:  Sun Jun 25 21:03:23 2023
  Total elapsed time: 00:00:12