
  OWA STORM WATER MANAGEMENT MODEL - VERSION v5.1.14 (OWA 2022-07-31)
  --------------------------------------------------------------

  WARNING 04: minimum elevation drop used for Conduit WS02004404WS02004405
  WARNING 03: negative offset ignored for Link YS02001904YS02001907
  
  *********************************************************
  NOTE: The summary statistics displayed in this report are
  based on results found at every computational time step,  
  not just on results from each reporting time step.
  *********************************************************
  
  ****************
  Analysis Options
  ****************
  Flow Units ............... LPS
  Process Models:
    Rainfall/Runoff ........ YES
    RDII ................... NO
    Snowmelt ............... NO
    Groundwater ............ NO
    Flow Routing ........... YES
    Ponding Allowed ........ NO
    Water Quality .......... NO
  Infiltration Method ...... HORTON
  Flow Routing Method ...... DYNWAVE
  Surcharge Method ......... EXTRAN
  Starting Date ............ 08/28/2015 08:00:00
  Ending Date .............. 08/28/2015 16:00:00
  Antecedent Dry Days ...... 8.0
  Report Time Step ......... 00:01:00
  Wet Time Step ............ 00:01:00
  Dry Time Step ............ 00:01:00
  Routing Time Step ........ 30.00 sec
  Variable Time Step ....... YES
  Maximum Trials ........... 8
  Number of Threads ........ 2
  Head Tolerance ........... 0.001500 m
  
  
  **************************        Volume         Depth
  Runoff Quantity Continuity     hectare-m            mm
  **************************     ---------       -------
  Initial LID Storage ......         0.072         1.184
  Total Precipitation ......         3.068        50.640
  Evaporation Loss .........         0.000         0.000
  Infiltration Loss ........         0.200         3.297
  Surface Runoff ...........         2.304        38.029
  Final Storage ............         0.637        10.518
  Continuity Error (%) .....        -0.039
  
  
  **************************        Volume        Volume
  Flow Routing Continuity        hectare-m      10^6 ltr
  **************************     ---------     ---------
  Dry Weather Inflow .......         0.630         6.296
  Wet Weather Inflow .......         2.304        23.039
  Groundwater Inflow .......         0.000         0.000
  RDII Inflow ..............         0.000         0.000
  External Inflow ..........         0.105         1.045
  External Outflow .........         1.881        18.811
  Flooding Loss ............         0.945         9.450
  Evaporation Loss .........         0.000         0.000
  Exfiltration Loss ........         0.000         0.000
  Initial Stored Volume ....         0.303         3.031
  Final Stored Volume ......         0.518         5.185
  Continuity Error (%) .....        -0.104
  
  
  *************************
  Highest Continuity Errors
  *************************
  Node YS02001583 (-4.96%)
  Node YS02001884 (4.95%)
  Node YS02001774 (4.09%)
  Node HS02004842 (2.05%)
  Node HS02004817 (1.26%)
  
  
  ***************************
  Time-Step Critical Elements
  ***************************
  Link WS02006252WS02006251 (67.30%)
  Link WS02006280WS02006229 (15.74%)
  Link WS02006238WS02006235 (5.10%)
  Link YS02001791YS02001793 (2.85%)
  Link YS02006556YS02006558 (1.22%)
  
  
  ********************************
  Highest Flow Instability Indexes
  ********************************
  Link WS02006113WS02006111 (21)
  Link WS02006256WS02006235 (14)
  Link WS02006238WS02006235 (11)
  Link WS02004404WS02004405 (11)
  Link WS02006111WS02006112 (10)
  
  
  *************************
  Routing Time Step Summary
  *************************
  Minimum Time Step           :     0.00 sec
  Average Time Step           :     1.97 sec
  Maximum Time Step           :     6.46 sec
  Percent in Steady State     :    -0.00
  Average Iterations per Step :     2.84
  Percent Not Converging      :     8.10
  
  
  ***************************
  Subcatchment Runoff Summary
  ***************************
  
  ------------------------------------------------------------------------------------------------------------------------------
                            Total      Total      Total      Total     Imperv       Perv      Total       Total     Peak  Runoff
                           Precip      Runon       Evap      Infil     Runoff     Runoff     Runoff      Runoff   Runoff   Coeff
  Subcatchment                 mm         mm         mm         mm         mm         mm         mm    10^6 ltr      LPS
  ------------------------------------------------------------------------------------------------------------------------------
  sub0                      50.64       0.00       0.00       0.96      45.85       2.59      48.43        0.04    31.57   0.956
  sub1                      50.64       0.00       0.00       1.47      39.28       3.53      42.81        0.28   198.15   0.845
  sub10                     50.64       0.00       0.00       0.93      36.82       2.36      39.18        0.43   311.25   0.774
  sub11                     50.64       0.00       0.00       0.85      34.22       2.21      36.43        0.42   322.05   0.719
  sub12                     50.64       0.00       0.00       1.48      34.79       3.86      38.65        0.34   271.56   0.763
  sub14                     50.64       0.00       0.00       0.92      32.41       2.37      34.78        0.33   248.84   0.687
  sub15                     50.64       0.00       0.00       4.27      29.13       8.57      37.70        0.65   445.63   0.744
  sub16                     50.64       0.00       0.00       4.51      28.42       9.88      38.30        0.40   302.38   0.756
  sub17                     50.64       0.00       0.00       4.83      31.36      10.34      41.70        0.36   262.90   0.823
  sub2                      50.64       0.00       0.00       6.76      28.71      10.59      39.30        0.37   210.47   0.776
  sub22                     50.64       0.00       0.00       7.59      27.20      13.50      40.69        2.57  1655.81   0.804
  sub23                     50.64       0.00       0.00       5.69      28.01      11.21      39.22        1.87  1298.44   0.774
  sub3                      50.64       0.00       0.00       7.23      28.42       9.97      38.39        0.86   452.46   0.758
  sub4                      50.64       0.00       0.00       1.62      38.66       3.31      41.97        0.88   486.02   0.829
  sub5                      50.64       0.00       0.00       0.83      38.00       2.11      40.12        0.45   320.61   0.792
  sub60                     50.64       0.00       0.00       1.33      33.47       3.37      36.83        0.48   372.16   0.727
  sub61                     50.64       0.00       0.00       2.04      33.44       5.00      38.44        0.71   543.55   0.759
  sub62                     50.64       0.00       0.00       0.90      35.64       2.29      37.93        1.04   743.92   0.749
  sub63                     50.64       0.00       0.00       3.78      28.64       8.24      36.88        0.84   619.17   0.728
  sub64                     50.64       0.00       0.00       1.81      32.60       4.11      36.72        0.88   606.30   0.725
  sub65                     50.64       0.00       0.00       1.66      35.19       3.75      38.94        1.07   706.01   0.769
  sub66                     50.64       0.00       0.00       4.45      27.68       7.19      34.87        1.63   919.14   0.689
  sub67                     50.64       0.00       0.00       0.89      36.55       2.37      38.92        0.72   574.09   0.769
  sub68                     50.64       0.00       0.00       1.57      32.27       3.83      36.11        0.99   742.04   0.713
  sub69                     50.64       0.00       0.00       1.43      34.03       4.58      38.62        1.43   912.94   0.763
  sub7                      50.64       0.00       0.00       0.98      34.74       2.55      37.29        0.13    97.10   0.736
  sub70                     50.64       0.00       0.00       4.90      27.25       9.20      36.46        1.05   529.77   0.720
  sub71                     50.64       0.00       0.00       0.83      32.38       2.06      34.44        0.90   612.30   0.680
  sub72                     50.64       0.00       0.00       0.80      34.96       1.91      36.88        0.51   314.24   0.728
  sub8                      50.64       0.00       0.00       0.96      33.76       2.47      36.23        0.23   174.84   0.715
  sub9                      50.64       0.00       0.00       0.93      32.72       2.40      35.12        0.17   127.40   0.694
  

  ***********************
  LID Performance Summary
  ***********************

  --------------------------------------------------------------------------------------------------------------------
                                         Total      Evap     Infil   Surface    Drain    Initial     Final  Continuity
                                        Inflow      Loss      Loss   Outflow   Outflow   Storage   Storage       Error
  Subcatchment      LID Control             mm        mm        mm        mm        mm        mm        mm           %
  --------------------------------------------------------------------------------------------------------------------
  sub1              GreenRoof            50.64      0.00      0.00      0.00      0.00      7.05     57.75       -0.10
  sub10             GreenRoof            50.64      0.00      0.00      0.00      0.00      7.05     57.75       -0.10
  sub11             GreenRoof            50.64      0.00      0.00      0.00      0.00      7.05     57.75       -0.10
  sub12             GreenRoof            50.64      0.00      0.00      0.00      0.00      7.05     57.75       -0.10
  sub14             GreenRoof            50.64      0.00      0.00      0.00      0.00      7.05     57.75       -0.10
  sub15             GreenRoof            50.64      0.00      0.00      0.00      0.00      7.05     57.75       -0.10
  sub16             GreenRoof            50.64      0.00      0.00      0.00      0.00      7.05     57.75       -0.10
  sub17             GreenRoof            50.64      0.00      0.00      0.00      0.00      7.05     57.75       -0.10
  sub2              GreenRoof            50.64      0.00      0.00      0.00      0.00      7.05     57.75       -0.10
  sub22             GreenRoof            50.64      0.00      0.00      0.00      0.00      7.05     57.75       -0.10
  sub23             GreenRoof            50.64      0.00      0.00      0.00      0.00      7.05     57.75       -0.10
  sub3              GreenRoof            50.64      0.00      0.00      0.00      0.00      7.05     57.75       -0.10
  sub4              GreenRoof            50.64      0.00      0.00      0.00      0.00      7.05     57.75       -0.10
  sub5              GreenRoof            50.64      0.00      0.00      0.00      0.00      7.05     57.75       -0.10
  sub60             GreenRoof            50.64      0.00      0.00      0.00      0.00      7.05     57.75       -0.10
  sub61             GreenRoof            50.64      0.00      0.00      0.00      0.00      7.05     57.75       -0.10
  sub62             GreenRoof            50.64      0.00      0.00      0.00      0.00      7.05     57.75       -0.10
  sub63             GreenRoof            50.64      0.00      0.00      0.00      0.00      7.05     57.75       -0.10
  sub64             GreenRoof            50.64      0.00      0.00      0.00      0.00      7.05     57.75       -0.10
  sub65             GreenRoof            50.64      0.00      0.00      0.00      0.00      7.05     57.75       -0.10
  sub66             GreenRoof            50.64      0.00      0.00      0.00      0.00      7.05     57.75       -0.10
  sub67             GreenRoof            50.64      0.00      0.00      0.00      0.00      7.05     57.75       -0.10
  sub68             GreenRoof            50.64      0.00      0.00      0.00      0.00      7.05     57.75       -0.10
  sub69             GreenRoof            50.64      0.00      0.00      0.00      0.00      7.05     57.75       -0.10
  sub7              GreenRoof            50.64      0.00      0.00      0.00      0.00      7.05     57.75       -0.10
  sub70             GreenRoof            50.64      0.00      0.00      0.00      0.00      7.05     57.75       -0.10
  sub71             GreenRoof            50.64      0.00      0.00      0.00      0.00      7.05     57.75       -0.10
  sub72             GreenRoof            50.64      0.00      0.00      0.00      0.00      7.05     57.75       -0.10
  sub8              GreenRoof            50.64      0.00      0.00      0.00      0.00      7.05     57.75       -0.10
  sub9              GreenRoof            50.64      0.00      0.00      0.00      0.00      7.05     57.75       -0.10
  
  ******************
  Node Depth Summary
  ******************
  
  ---------------------------------------------------------------------------------
                                 Average  Maximum  Maximum  Time of Max    Reported
                                   Depth    Depth      HGL   Occurrence   Max Depth
  Node                 Type       Meters   Meters   Meters  days hr:min      Meters
  ---------------------------------------------------------------------------------
  HS02004478           JUNCTION     0.16     1.86    11.09     0  02:24        1.86
  HS02004479           JUNCTION     0.23     1.69    10.90     0  02:21        1.66
  HS02004480           JUNCTION     0.20     1.81    11.05     0  02:24        1.81
  HS02004770           JUNCTION     0.21     1.42    11.25     0  02:17        1.42
  HS02004777           JUNCTION     0.24     1.48    11.28     0  02:18        1.45
  HS02004785           JUNCTION     0.14     1.45    11.35     0  02:18        1.36
  HS02004788           JUNCTION     0.11     1.42    11.32     0  02:18        1.42
  HS02004792           JUNCTION     0.15     1.60    11.12     0  02:18        1.60
  HS02004799           JUNCTION     0.25     1.76    10.97     0  02:21        1.76
  HS02004802           JUNCTION     0.26     1.82    10.94     0  02:24        1.71
  HS02004807           JUNCTION     0.23     1.92    11.09     0  02:24        1.92
  HS02004817           JUNCTION     0.53     2.44    11.29     0  02:24        2.44
  HS02004824           JUNCTION     0.11     2.01    11.41     0  02:24        2.01
  HS02004830           JUNCTION     0.12     2.03    11.50     0  02:24        2.03
  HS02004837           JUNCTION     0.09     2.04    11.62     0  02:24        2.04
  HS02004842           JUNCTION     0.39     2.22    11.49     0  02:21        1.81
  HS02004848           JUNCTION     0.07     2.07    11.67     0  02:21        2.07
  HS02004852           JUNCTION     0.08     2.12    11.63     0  02:21        2.12
  HS02004856           JUNCTION     0.14     2.07    11.50     0  02:21        2.07
  HS02004862           JUNCTION     0.09     2.00    11.38     0  02:21        2.00
  HS02004870           JUNCTION     0.08     2.10    11.39     0  02:24        2.10
  HS02004876           JUNCTION     0.12     2.26    11.29     0  02:24        2.26
  HS02004881           JUNCTION     0.07     2.15    11.18     0  02:24        2.15
  HS02004901           JUNCTION     0.22     1.42    11.24     0  02:17        1.42
  WS02001211           JUNCTION     0.63     0.81     5.65     0  02:29        0.81
  WS02001212           JUNCTION     0.37     0.57     5.64     0  02:26        0.57
  WS02001213           JUNCTION     0.58     0.87     5.63     0  02:26        0.87
  WS02003059           JUNCTION     0.64     0.94     5.63     0  02:26        0.94
  WS02003060           JUNCTION     0.35     0.69     5.62     0  02:25        0.69
  WS02003066           JUNCTION     0.20     0.46     6.01     0  02:25        0.46
  WS02003067           JUNCTION     0.50     0.90     6.22     0  02:24        0.90
  WS02003069           JUNCTION     0.40     0.78     5.36     0  02:26        0.77
  WS02003072           JUNCTION     0.46     0.81     5.18     0  02:26        0.81
  WS02003073           JUNCTION     0.27     0.51     4.58     0  02:27        0.51
  WS02004138           JUNCTION     0.13     0.14     7.39     0  00:31        0.14
  WS02004139           JUNCTION     0.57     0.74     5.65     0  02:28        0.74
  WS02004401           JUNCTION     0.67     2.22     8.22     0  02:24        1.88
  WS02004402           JUNCTION     0.69     2.15     8.11     0  02:24        1.82
  WS02004403           JUNCTION     0.71     2.57     8.50     0  02:24        2.57
  WS02004404           JUNCTION     0.77     2.40     8.25     0  02:24        2.40
  WS02004405           JUNCTION     0.77     2.09     7.94     0  02:24        2.09
  WS02004406           JUNCTION     0.77     1.62     7.45     0  02:24        1.58
  WS02004407           JUNCTION     0.21     0.95     7.26     0  02:24        0.92
  WS02004409           JUNCTION     0.45     1.48     7.25     0  02:24        1.38
  WS02004410           JUNCTION     0.46     1.34     7.06     0  02:24        1.28
  WS02004411           JUNCTION     0.47     1.26     6.94     0  02:24        1.19
  WS02004412           JUNCTION     0.48     1.17     6.81     0  02:24        1.10
  WS02004413           JUNCTION     0.63     1.18     6.65     0  02:24        1.14
  WS02006109           JUNCTION     0.81     2.64     9.26     0  02:18        2.64
  WS02006110           JUNCTION     0.78     2.76     9.34     0  02:24        2.76
  WS02006111           JUNCTION     0.32     1.98     8.69     0  02:24        1.98
  WS02006112           JUNCTION     0.86     2.68     8.56     0  02:24        2.68
  WS02006113           JUNCTION     0.39     2.01     8.90     0  02:24        1.83
  WS02006115           JUNCTION     0.58     3.26     9.40     0  02:24        3.26
  WS02006116           JUNCTION     0.65     3.35     9.39     0  02:24        3.35
  WS02006228           JUNCTION     0.84     3.03     9.68     0  02:24        3.03
  WS02006229           JUNCTION     0.83     3.25     9.94     0  02:24        3.19
  WS02006230           JUNCTION     0.77     2.65     9.39     0  02:15        2.65
  WS02006231           JUNCTION     0.52     2.19     9.32     0  02:24        2.19
  WS02006232           JUNCTION     0.62     2.18     9.22     0  02:14        2.18
  WS02006234           JUNCTION     0.50     1.96     9.12     0  02:13        1.96
  WS02006235           JUNCTION     0.52     2.00     9.16     0  02:24        2.00
  WS02006238           JUNCTION     0.54     2.05     9.19     0  02:24        1.94
  WS02006239           JUNCTION     0.48     1.90     9.11     0  02:24        1.79
  WS02006240           JUNCTION     0.44     2.10     9.39     0  02:24        2.10
  WS02006242           JUNCTION     0.48     1.55     8.82     0  02:12        1.55
  WS02006243           JUNCTION     0.38     1.48     8.90     0  02:03        1.48
  WS02006245           JUNCTION     0.38     1.56     9.04     0  02:03        1.27
  WS02006247           JUNCTION     0.39     1.47     8.97     0  02:03        1.47
  WS02006248           JUNCTION     0.34     1.10     8.69     0  02:03        1.10
  WS02006249           JUNCTION     0.37     1.09     8.69     0  02:03        1.09
  WS02006251           JUNCTION     0.42     2.21     9.88     0  02:24        2.21
  WS02006252           JUNCTION     0.31     1.50     9.74     0  00:00        1.50
  WS02006253           JUNCTION     0.47     3.04    10.68     0  02:24        3.04
  WS02006256           JUNCTION     0.81     2.35     9.28     0  00:00        2.35
  WS02006280           JUNCTION     0.21     1.79    10.06     0  02:24        1.72
  WS02006284           JUNCTION     0.49     2.00    10.40     0  02:24        1.92
  WS02006287           JUNCTION     0.22     1.89    10.84     0  02:24        1.89
  WSF200               JUNCTION     0.19     0.53     5.76     0  02:25        0.52
  YS02001580           JUNCTION     0.04     1.05     9.59     0  02:18        0.77
  YS02001583           JUNCTION     0.07     1.04     9.53     0  02:18        0.91
  YS02001586           JUNCTION     0.13     1.13     9.30     0  02:18        1.13
  YS02001590           JUNCTION     0.21     1.40     9.26     0  02:18        1.40
  YS02001593           JUNCTION     0.14     1.42     9.28     0  02:24        1.28
  YS02001596           JUNCTION     0.19     1.78     9.20     0  02:24        1.65
  YS02001600           JUNCTION     0.24     1.87     9.00     0  02:18        1.87
  YS02001601           JUNCTION     0.43     2.06     8.90     0  02:17        2.06
  YS02001602           JUNCTION     0.35     1.87     8.77     0  02:18        1.87
  YS02001605           JUNCTION     0.32     1.78     8.68     0  02:24        1.77
  YS02001607           JUNCTION     0.33     1.65     8.49     0  02:24        1.64
  YS02001610           JUNCTION     0.38     1.68     8.48     0  02:18        1.68
  YS02001613           JUNCTION     0.34     1.67     8.51     0  02:24        1.64
  YS02001616           JUNCTION     0.27     1.61     8.52     0  02:24        1.61
  YS02001619           JUNCTION     0.25     1.61     8.54     0  02:24        1.61
  YS02001622           JUNCTION     0.24     1.62     8.52     0  02:24        1.62
  YS02001625           JUNCTION     0.49     1.78     8.38     0  02:18        1.78
  YS02001629           JUNCTION     0.34     1.85     8.40     0  02:18        1.85
  YS02001633           JUNCTION     0.42     2.08     8.53     0  02:24        2.08
  YS02001641           JUNCTION     0.41     2.02     8.46     0  02:24        1.94
  YS02001644           JUNCTION     0.41     1.92     8.35     0  02:22        1.92
  YS02001647           JUNCTION     0.21     1.73     8.34     0  02:23        1.71
  YS02001649           JUNCTION     0.34     1.93     8.32     0  02:24        1.90
  YS02001652           JUNCTION     0.16     1.80     8.40     0  02:23        1.71
  YS02001655           JUNCTION     0.11     1.67     8.52     0  02:22        1.47
  YS02001658           JUNCTION     0.08     1.57     8.71     0  02:22        1.20
  YS02001661           JUNCTION     0.12     1.18     8.58     0  02:23        0.98
  YS02001664           JUNCTION     0.04     0.52     8.44     0  02:24        0.47
  YS02001745           JUNCTION     0.04     0.74     8.25     0  02:24        0.70
  YS02001748           JUNCTION     0.07     1.65     8.73     0  02:22        1.14
  YS02001751           JUNCTION     0.09     2.20     9.08     0  02:24        2.20
  YS02001754           JUNCTION     0.14     2.20     8.81     0  02:24        2.20
  YS02001757           JUNCTION     0.43     2.21     8.47     0  02:24        2.21
  YS02001759           JUNCTION     0.34     2.21     8.57     0  02:24        2.21
  YS02001762           JUNCTION     0.31     1.96     8.36     0  02:24        1.88
  YS02001765           JUNCTION     0.27     1.93     8.38     0  02:24        1.85
  YS02001767           JUNCTION     0.25     1.92     8.41     0  02:24        1.84
  YS02001770           JUNCTION     0.25     1.95     8.44     0  02:24        1.95
  YS02001774           JUNCTION     0.31     1.99     8.41     0  02:24        1.95
  YS02001779           JUNCTION     0.11     1.68     8.37     0  02:21        1.68
  YS02001783           JUNCTION     0.19     2.40     8.54     0  02:24        2.40
  YS02001784           JUNCTION     0.21     1.51     7.57     0  02:24        1.18
  YS02001786           JUNCTION     0.19     1.51     7.54     0  02:35        1.10
  YS02001788           JUNCTION     0.14     1.71     7.68     0  02:35        1.71
  YS02001790           JUNCTION     0.19     1.59     7.24     0  02:34        1.49
  YS02001791           JUNCTION     0.16     1.66     7.13     0  02:34        1.22
  YS02001793           JUNCTION     0.19     1.81     6.64     0  02:35        1.79
  YS02001882           JUNCTION     0.22     1.66     8.38     0  02:22        1.62
  YS02001884           JUNCTION     0.31     1.93     8.55     0  02:24        1.93
  YS02001887           JUNCTION     0.39     2.00     8.54     0  02:24        2.00
  YS02001890           JUNCTION     0.42     1.81     8.32     0  02:22        1.81
  YS02001895           JUNCTION     0.20     1.75     8.50     0  02:24        1.75
  YS02001898           JUNCTION     0.20     1.77     8.51     0  02:24        1.77
  YS02001901           JUNCTION     0.31     1.87     8.48     0  02:24        1.87
  YS02001904           JUNCTION     0.29     1.85     8.48     0  02:24        1.85
  YS02001907           JUNCTION     0.61     1.96     8.25     0  02:22        1.96
  YS02001910           JUNCTION     0.41     2.03     8.54     0  02:24        1.80
  YS02001915           JUNCTION     0.22     2.00     8.72     0  02:24        2.00
  YS02001918           JUNCTION     0.10     1.81     8.88     0  02:23        1.29
  YS02001920           JUNCTION     0.18     2.14     9.15     0  02:23        1.37
  YS02001923           JUNCTION     0.07     2.03     9.29     0  02:23        1.14
  YS02001926           JUNCTION     0.11     1.90     9.35     0  02:23        1.00
  YS02001929           JUNCTION     0.05     1.78     9.47     0  02:23        0.78
  YS02006553           JUNCTION     0.61     2.19     8.47     0  02:24        2.19
  YS02006556           JUNCTION     0.59     2.01     8.33     0  02:24        1.94
  YS02006558           JUNCTION     0.63     2.50     8.77     0  02:24        2.50
  YS02006561           JUNCTION     0.11     1.12     7.78     0  02:24        0.88
  YS02163301           JUNCTION     0.37     2.03     8.55     0  02:24        2.03
  YS02163601           JUNCTION     0.46     2.08     8.48     0  02:24        2.08
  YS02164001           JUNCTION     0.40     2.05     8.51     0  02:24        1.92
  YSB1154              JUNCTION     0.37     2.10    11.16     0  02:24        2.10
  YSB1171              JUNCTION     0.52     1.95    10.85     0  02:21        1.95
  YSB1174              JUNCTION     0.32     1.95    11.06     0  02:24        1.95
  YSB6556              JUNCTION     0.27     1.80    10.97     0  02:24        1.80
  CC-1                 OUTFALL      0.00     0.00     0.00     0  00:00        0.00
  CC-2                 OUTFALL      0.00     0.00     0.00     0  00:00        0.00
  JK-1                 OUTFALL      0.00     0.00     0.00     0  00:00        0.00
  JK-2                 OUTFALL      0.00     0.00     0.00     0  00:00        0.00
  WSC                  OUTFALL      0.27     0.51     1.18     0  02:28        0.51
  CC-storage           STORAGE      1.07     1.62     7.12     0  02:40        1.62
  JK-storage           STORAGE      3.32     5.80     6.60     0  02:35        5.80
  XR-storage           STORAGE      7.97     9.26     7.26     0  08:00        9.26
  
  
  *******************
  Node Inflow Summary
  *******************
  
  -------------------------------------------------------------------------------------------------
                                  Maximum  Maximum                  Lateral       Total        Flow
                                  Lateral    Total  Time of Max      Inflow      Inflow     Balance
                                   Inflow   Inflow   Occurrence      Volume      Volume       Error
  Node                 Type           LPS      LPS  days hr:min    10^6 ltr    10^6 ltr     Percent
  -------------------------------------------------------------------------------------------------
  HS02004478           JUNCTION      0.00  2322.25     0  02:24           0        6.75      -0.014
  HS02004479           JUNCTION      0.00   409.23     0  02:21           0       0.626       0.134
  HS02004480           JUNCTION      0.00  2087.80     0  02:19           0        5.17       0.051
  HS02004770           JUNCTION   1298.44  1298.44     0  02:25        1.87        2.07       0.134
  HS02004777           JUNCTION      0.03   747.68     0  02:17    0.000864        1.54       0.330
  HS02004785           JUNCTION      0.15   762.87     0  02:17     0.00432        1.54       0.015
  HS02004788           JUNCTION    447.30   843.19     0  02:18       0.697        2.24       0.006
  HS02004792           JUNCTION   1656.09  2421.90     0  02:25        2.58        4.82       0.012
  HS02004799           JUNCTION    248.84  1761.39     0  02:19       0.331        4.57       0.056
  HS02004802           JUNCTION      0.00   963.91     0  02:25           0        1.62       0.249
  HS02004807           JUNCTION    322.05   963.21     0  02:25       0.423        1.66       0.238
  HS02004817           JUNCTION      0.60   648.29     0  02:26      0.0173        1.29       1.272
  HS02004824           JUNCTION    486.07   647.29     0  02:26       0.877        1.44       0.032
  HS02004830           JUNCTION      0.15   617.06     0  02:18     0.00432       0.719       0.184
  HS02004837           JUNCTION    317.60   808.32     0  02:19       0.615       0.977       0.041
  HS02004842           JUNCTION      0.00   791.07     0  02:19           0       0.627       2.095
  HS02004848           JUNCTION    452.46  1067.38     0  02:21       0.864        1.33      -0.027
  HS02004852           JUNCTION      0.00  1021.95     0  02:21           0        1.19      -0.014
  HS02004856           JUNCTION    127.40  1073.41     0  02:21       0.169        1.36       0.083
  HS02004862           JUNCTION    210.67  1195.57     0  02:21       0.372        1.73       0.007
  HS02004870           JUNCTION    174.84  1278.10     0  02:21       0.232        1.96       0.008
  HS02004876           JUNCTION    198.15  1317.11     0  02:24       0.285        2.24       0.035
  HS02004881           JUNCTION     97.10  1418.99     0  02:24       0.126        2.37       0.014
  HS02004901           JUNCTION    302.38   549.80     0  02:25       0.401       0.596       0.281
  WS02001211           JUNCTION      7.35   208.13     0  02:28       0.212        5.44       0.611
  WS02001212           JUNCTION      0.00   210.86     0  03:22           0        5.41       0.290
  WS02001213           JUNCTION      0.00   214.76     0  03:22           0        5.39       0.333
  WS02003059           JUNCTION      0.00   222.00     0  03:22           0        5.38       0.597
  WS02003060           JUNCTION     16.53  1525.09     0  02:25       0.476        12.7       0.118
  WS02003066           JUNCTION      0.00  1308.92     0  02:25           0        6.89       0.022
  WS02003067           JUNCTION      0.00  1300.23     0  02:24           0         6.9       0.066
  WS02003069           JUNCTION      0.32  1506.50     0  02:26     0.00922        12.7       0.124
  WS02003072           JUNCTION      0.00  1500.81     0  02:26           0        12.7       0.167
  WS02003073           JUNCTION      1.82  1501.17     0  02:27      0.0524        12.7       0.175
  WS02004138           JUNCTION      0.00   380.00     0  00:00           0        5.25       0.054
  WS02004139           JUNCTION      0.32   190.32     0  00:31     0.00924        5.26       0.509
  WS02004401           JUNCTION      0.00  1301.58     0  02:24           0           7       0.150
  WS02004402           JUNCTION      0.00  1311.04     0  02:24           0        6.99       0.153
  WS02004403           JUNCTION      0.00  1319.58     0  02:24           0        6.98       0.148
  WS02004404           JUNCTION      0.16  1331.39     0  02:24     0.00467        6.98       0.121
  WS02004405           JUNCTION      0.04  1351.53     0  02:24      0.0011        6.97       0.183
  WS02004406           JUNCTION      0.00  1370.11     0  02:24           0        6.96       0.308
  WS02004407           JUNCTION      0.00  1374.47     0  02:24           0        6.94       0.023
  WS02004409           JUNCTION      0.00  1299.28     0  02:25           0        6.93       0.050
  WS02004410           JUNCTION      0.00  1298.83     0  02:25           0        6.93       0.077
  WS02004411           JUNCTION      0.00  1299.55     0  02:25           0        6.93       0.093
  WS02004412           JUNCTION      0.00  1299.09     0  02:24           0        6.92       0.121
  WS02004413           JUNCTION      0.00  1300.08     0  02:24           0        6.91       0.204
  WS02006109           JUNCTION      1.23  1277.28     0  02:24      0.0354        6.83       0.156
  WS02006110           JUNCTION      0.00  1119.59     0  02:35           0        6.69       0.115
  WS02006111           JUNCTION      0.00  1119.76     0  02:35           0        6.68       0.012
  WS02006112           JUNCTION    262.90  1298.87     0  02:24       0.358        7.03       0.258
  WS02006113           JUNCTION      0.00  1119.53     0  02:35           0        6.68       0.026
  WS02006115           JUNCTION      0.00  1294.79     0  02:24           0        7.02       0.095
  WS02006116           JUNCTION      0.00  1292.54     0  02:24           0        7.01       0.086
  WS02006228           JUNCTION      0.00  1286.67     0  02:24           0         6.8       0.077
  WS02006229           JUNCTION      0.00  2289.30     0  02:24           0         8.4       0.098
  WS02006230           JUNCTION     10.28  1016.98     0  02:24       0.296         3.3       0.269
  WS02006231           JUNCTION      0.00   496.68     0  02:24           0        2.42      -0.182
  WS02006232           JUNCTION      0.00   492.12     0  02:24           0        2.42       0.310
  WS02006234           JUNCTION      0.00   483.33     0  02:24           0        2.41      -0.322
  WS02006235           JUNCTION      0.00   453.45     0  02:24           0        2.43       0.435
  WS02006238           JUNCTION      0.00   415.90     0  02:33           0        2.12      -0.281
  WS02006239           JUNCTION      0.00   415.48     0  02:33           0         2.1      -0.217
  WS02006240           JUNCTION      0.00   415.09     0  02:33           0        2.08       0.011
  WS02006242           JUNCTION      0.00   415.16     0  02:33           0        2.08       0.068
  WS02006243           JUNCTION      0.00   371.48     0  00:05           0        1.81       0.070
  WS02006245           JUNCTION      0.00   383.09     0  00:05           0        1.82       0.522
  WS02006247           JUNCTION      0.00   385.59     0  00:04           0        1.82       0.076
  WS02006248           JUNCTION      0.00   390.96     0  00:04           0        2.01      -0.092
  WS02006249           JUNCTION      0.00  1341.49     0  02:24           0        4.24       0.212
  WS02006251           JUNCTION      0.08  1466.90     0  02:24     0.00222        4.28      -0.013
  WS02006252           JUNCTION      0.00   400.00     0  00:00           0        2.01      -0.027
  WS02006253           JUNCTION     31.57  1459.31     0  02:24      0.0392        2.43       0.002
  WS02006256           JUNCTION      0.00   300.00     0  00:00           0       0.902      -0.647
  WS02006280           JUNCTION      0.00  2286.09     0  02:24           0        6.73       0.005
  WS02006284           JUNCTION      0.10  2291.32     0  02:24     0.00275        6.73       0.021
  WS02006287           JUNCTION      0.00  2311.43     0  02:24           0        6.73       0.015
  WSF200               JUNCTION      0.00  1309.52     0  02:25           0        6.89       0.014
  YS02001580           JUNCTION      0.00   105.54     0  02:18           0     0.00405      -3.021
  YS02001583           JUNCTION      0.00   153.39     0  02:18           0       0.015      -4.723
  YS02001586           JUNCTION    529.77   530.00     0  02:26        1.05        1.06       0.114
  YS02001590           JUNCTION      0.00   346.97     0  02:24           0       0.948      -0.030
  YS02001593           JUNCTION      0.00   338.08     0  02:24           0       0.948       0.025
  YS02001596           JUNCTION      0.00   318.13     0  02:24           0       0.948       0.004
  YS02001600           JUNCTION      0.00   318.48     0  02:24           0       0.948       0.011
  YS02001601           JUNCTION    912.94  1230.34     0  02:25        1.43        2.38       0.029
  YS02001602           JUNCTION      0.00   506.47     0  02:17           0        1.73       0.015
  YS02001605           JUNCTION      0.00   506.19     0  02:17           0        1.67       0.012
  YS02001607           JUNCTION      0.00   505.69     0  02:17           0        1.67       0.112
  YS02001610           JUNCTION      0.00   503.79     0  02:17           0        1.68       0.126
  YS02001613           JUNCTION      0.00   505.94     0  02:17           0        1.46       0.113
  YS02001616           JUNCTION      0.00   504.74     0  02:17           0        1.46       0.012
  YS02001619           JUNCTION    919.14   919.14     0  02:26        1.63        3.07       0.000
  YS02001622           JUNCTION      0.00   916.08     0  02:19           0        3.06      -0.002
  YS02001625           JUNCTION      0.00  1032.16     0  02:26           0         3.1       0.293
  YS02001629           JUNCTION      0.00   916.31     0  02:19           0        2.63       0.018
  YS02001633           JUNCTION    706.21  1322.72     0  02:20        1.08        3.66       0.093
  YS02001641           JUNCTION      0.00  1318.84     0  02:20           0        3.62       0.078
  YS02001644           JUNCTION    606.34  1679.94     0  02:20       0.883         4.5       0.073
  YS02001647           JUNCTION      0.00  1678.89     0  02:20           0        4.42       0.000
  YS02001649           JUNCTION      0.00  1880.23     0  02:19           0        5.26       0.118
  YS02001652           JUNCTION      0.00   679.07     0  02:24           0       0.844      -0.112
  YS02001655           JUNCTION      0.15   677.38     0  02:24     0.00443       0.843       0.095
  YS02001658           JUNCTION      0.00   675.95     0  02:24           0       0.838      -0.008
  YS02001661           JUNCTION      0.00   833.08     0  02:25           0       0.837      -0.039
  YS02001664           JUNCTION    619.17   619.17     0  02:25       0.837       0.837      -0.006
  YS02001745           JUNCTION    372.16   372.16     0  02:25       0.484       0.485       0.249
  YS02001748           JUNCTION      0.04   537.16     0  02:22      0.0013       0.486      -0.537
  YS02001751           JUNCTION      0.01   398.03     0  02:24    0.000317       0.496       0.227
  YS02001754           JUNCTION      0.26   399.25     0  02:24     0.00749       0.515      -0.232
  YS02001757           JUNCTION      0.00  3042.95     0  02:23           0        7.52       0.428
  YS02001759           JUNCTION    543.59  1205.93     0  02:25       0.707        1.78       0.254
  YS02001762           JUNCTION      0.00   689.21     0  02:26           0        1.08       0.324
  YS02001765           JUNCTION      0.00   687.89     0  02:26           0        1.08       0.275
  YS02001767           JUNCTION      0.54   687.39     0  02:26      0.0154        1.07       0.262
  YS02001770           JUNCTION    744.08   744.08     0  02:25        1.04        1.11       0.159
  YS02001774           JUNCTION      0.00   352.48     0  02:21           0      0.0817       4.264
  YS02001779           JUNCTION      0.01   355.97     0  02:21    0.000144       0.028      -2.567
  YS02001783           JUNCTION      0.00  1155.43     0  02:25           0        2.83       0.007
  YS02001784           JUNCTION      1.06  1156.57     0  02:25      0.0305        2.86       0.032
  YS02001786           JUNCTION      0.06  1156.74     0  02:25     0.00162        2.86       0.018
  YS02001788           JUNCTION      0.07  1157.25     0  02:25     0.00204        2.86      -0.004
  YS02001790           JUNCTION      0.15  1169.77     0  02:23     0.00446        2.87       0.017
  YS02001791           JUNCTION      0.00  1283.99     0  02:24           0        2.86      -0.042
  YS02001793           JUNCTION      0.00  1225.10     0  02:24           0        2.87      -0.030
  YS02001882           JUNCTION      0.00    43.99     0  02:20           0      0.0125       5.212
  YS02001884           JUNCTION      0.00    73.36     0  02:20           0      0.0484       5.212
  YS02001887           JUNCTION    574.54   575.86     0  02:25       0.737       0.771       0.582
  YS02001890           JUNCTION      0.00   576.20     0  02:25           0        0.73       0.693
  YS02001895           JUNCTION      0.00   513.75     0  02:26           0       0.716       0.176
  YS02001898           JUNCTION      0.00   513.20     0  02:26           0       0.715       0.029
  YS02001901           JUNCTION      0.00   513.13     0  02:26           0       0.717       0.431
  YS02001904           JUNCTION      0.00   512.71     0  02:26           0       0.721       0.373
  YS02001907           JUNCTION      0.00  1516.78     0  02:23           0         2.2       0.811
  YS02001910           JUNCTION      0.00  1062.26     0  02:24           0        1.49       0.499
  YS02001915           JUNCTION    612.32  1029.34     0  02:24       0.901        1.53       0.099
  YS02001918           JUNCTION      0.00   494.40     0  02:24           0       0.651       0.043
  YS02001920           JUNCTION      2.87   498.00     0  02:24      0.0827       0.635       0.155
  YS02001923           JUNCTION      0.04   428.00     0  02:23     0.00109       0.537      -0.172
  YS02001926           JUNCTION      0.05   505.64     0  02:22      0.0015       0.518      -0.112
  YS02001929           JUNCTION    314.24   333.59     0  02:23       0.507       0.508      -0.091
  YS02006553           JUNCTION      0.00   800.27     0  02:33           0        1.85       0.631
  YS02006556           JUNCTION      0.00   801.59     0  02:33           0        1.86       0.430
  YS02006558           JUNCTION    742.92  1156.97     0  02:24        1.02        2.86       0.117
  YS02006561           JUNCTION      0.00  1155.14     0  02:25           0        2.83       0.003
  YS02163301           JUNCTION      0.00   915.69     0  02:19           0        2.63       0.059
  YS02163601           JUNCTION      0.11  1321.56     0  02:20     0.00317        3.62       0.133
  YS02164001           JUNCTION      0.00  1320.52     0  02:20           0        3.62       0.068
  YSB1154              JUNCTION    320.61   320.61     0  02:25       0.455       0.455       0.324
  YSB1171              JUNCTION      0.00   593.72     0  02:25           0       0.801       0.801
  YSB1174              JUNCTION    271.56   271.56     0  02:25       0.338       0.338       0.395
  YSB6556              JUNCTION      0.00   320.87     0  02:25           0       0.456       0.274
  CC-1                 OUTFALL       0.00   683.00     0  00:00           0         2.7       0.000
  CC-2                 OUTFALL       0.00   683.00     0  00:00           0        1.84       0.000
  JK-1                 OUTFALL       0.00  1000.00     0  00:00           0        1.21       0.000
  JK-2                 OUTFALL       0.00  1000.00     0  00:00           0       0.368       0.000
  WSC                  OUTFALL       0.00  1499.20     0  02:28           0        12.7       0.000
  CC-storage           STORAGE       0.00  3044.38     0  02:24           0        9.68       0.114
  JK-storage           STORAGE       0.00  1241.82     0  02:24           0        3.02       0.269
  XR-storage           STORAGE     200.00   200.00     0  00:00        5.76        6.36       0.001
  
  
  **********************
  Node Surcharge Summary
  **********************
  
  Surcharging occurs when water rises above the top of the highest conduit.
  ---------------------------------------------------------------------
                                               Max. Height   Min. Depth
                                   Hours       Above Crown    Below Rim
  Node                 Type      Surcharged         Meters       Meters
  ---------------------------------------------------------------------
  HS02004478           JUNCTION        0.32          0.940        0.000
  HS02004479           JUNCTION        0.43          0.895        0.155
  HS02004480           JUNCTION        0.46          1.100        0.000
  HS02004770           JUNCTION        0.38          0.720        0.000
  HS02004777           JUNCTION        0.39          0.780        0.000
  HS02004785           JUNCTION        0.34          0.750        0.040
  HS02004788           JUNCTION        0.33          0.720        0.000
  HS02004792           JUNCTION        0.44          0.900        0.000
  HS02004799           JUNCTION        0.55          1.060        0.000
  HS02004802           JUNCTION        0.47          1.106        0.104
  HS02004807           JUNCTION        0.45          1.220        0.000
  HS02004817           JUNCTION        0.92          1.740        0.000
  HS02004824           JUNCTION        0.34          1.310        0.000
  HS02004830           JUNCTION        0.31          1.330        0.000
  HS02004837           JUNCTION        0.28          1.340        0.000
  HS02004842           JUNCTION        0.39          1.520        0.000
  HS02004848           JUNCTION        0.24          1.370        0.000
  HS02004852           JUNCTION        0.26          1.420        0.000
  HS02004856           JUNCTION        0.25          1.300        0.000
  HS02004862           JUNCTION        0.28          1.300        0.000
  HS02004870           JUNCTION        0.30          1.400        0.000
  HS02004876           JUNCTION        0.36          1.560        0.000
  HS02004881           JUNCTION        0.34          1.450        0.000
  HS02004901           JUNCTION        0.39          0.720        0.000
  WS02004401           JUNCTION        1.21          1.223        0.437
  WS02004402           JUNCTION        1.22          1.154        0.586
  WS02004403           JUNCTION        1.23          1.574        0.456
  WS02004404           JUNCTION        1.30          1.400        1.380
  WS02004405           JUNCTION        1.29          1.090        1.710
  WS02004406           JUNCTION        1.27          0.620        1.830
  WS02004409           JUNCTION        0.76          0.475        1.885
  WS02004410           JUNCTION        0.73          0.338        2.202
  WS02004411           JUNCTION        0.64          0.261        2.269
  WS02004412           JUNCTION        0.56          0.166        2.144
  WS02004413           JUNCTION        0.99          0.180        2.020
  WS02006109           JUNCTION        1.70          1.820        0.000
  WS02006110           JUNCTION        1.40          1.850        0.000
  WS02006111           JUNCTION        0.95          1.171        0.699
  WS02006112           JUNCTION        1.50          1.680        0.000
  WS02006113           JUNCTION        0.96          1.209        0.721
  WS02006115           JUNCTION        1.15          2.250        0.000
  WS02006116           JUNCTION        1.17          2.290        0.000
  WS02006228           JUNCTION        1.69          2.200        0.000
  WS02006229           JUNCTION        0.67          1.070        0.000
  WS02006230           JUNCTION        1.26          1.570        0.000
  WS02006231           JUNCTION        1.28          1.484        0.046
  WS02006232           JUNCTION        1.45          1.480        0.000
  WS02006234           JUNCTION        1.29          1.240        0.000
  WS02006235           JUNCTION        1.32          1.290        0.000
  WS02006238           JUNCTION        1.34          1.327        0.103
  WS02006239           JUNCTION        1.28          1.163        0.127
  WS02006240           JUNCTION        1.26          1.390        0.000
  WS02006242           JUNCTION        1.30          0.820        0.000
  WS02006243           JUNCTION        1.24          0.770        0.000
  WS02006245           JUNCTION        1.23          0.850        0.000
  WS02006247           JUNCTION        1.23          0.760        0.000
  WS02006248           JUNCTION        1.22          0.380        0.000
  WS02006249           JUNCTION        1.22          0.390        0.000
  WS02006251           JUNCTION        1.14          1.180        0.000
  WS02006252           JUNCTION        1.25          1.100        0.000
  WS02006253           JUNCTION        1.15          1.996        0.484
  WS02006256           JUNCTION        7.97          2.050        0.000
  WS02006280           JUNCTION        0.56          0.743        0.037
  WS02006284           JUNCTION        0.49          0.723        0.077
  WS02006287           JUNCTION        0.41          0.890        0.000
  YS02001580           JUNCTION        0.36          0.450        0.000
  YS02001583           JUNCTION        0.36          0.396        0.104
  YS02001586           JUNCTION        0.46          0.510        0.000
  YS02001590           JUNCTION        0.52          0.750        0.000
  YS02001593           JUNCTION        0.52          0.799        0.041
  YS02001596           JUNCTION        0.61          1.047        0.023
  YS02001600           JUNCTION        0.73          1.190        0.000
  YS02001601           JUNCTION        1.04          1.440        0.000
  YS02001602           JUNCTION        0.94          1.270        0.000
  YS02001605           JUNCTION        0.90          1.180        0.000
  YS02001607           JUNCTION        0.50          0.646        0.034
  YS02001610           JUNCTION        0.51          0.680        0.000
  YS02001613           JUNCTION        0.49          0.665        0.035
  YS02001616           JUNCTION        0.46          0.610        0.000
  YS02001619           JUNCTION        0.44          0.610        0.000
  YS02001622           JUNCTION        0.44          0.620        0.000
  YS02001625           JUNCTION        0.59          0.780        0.000
  YS02001629           JUNCTION        0.41          0.470        0.000
  YS02001633           JUNCTION        0.61          1.060        0.000
  YS02001641           JUNCTION        0.55          1.023        0.077
  YS02001644           JUNCTION        0.52          0.920        0.000
  YS02001647           JUNCTION        0.36          0.734        0.166
  YS02001649           JUNCTION        0.46          0.934        0.116
  YS02001652           JUNCTION        0.31          0.770        0.360
  YS02001655           JUNCTION        0.21          0.673        0.527
  YS02001658           JUNCTION        0.11          0.568        0.732
  YS02001661           JUNCTION        0.01          0.108        1.282
  YS02001748           JUNCTION        0.06          0.575        0.615
  YS02001751           JUNCTION        0.15          1.200        0.000
  YS02001754           JUNCTION        0.25          1.150        0.000
  YS02001757           JUNCTION        0.51          1.210        0.000
  YS02001759           JUNCTION        0.43          1.210        0.000
  YS02001762           JUNCTION        0.41          0.959        0.191
  YS02001765           JUNCTION        0.37          0.933        0.167
  YS02001767           JUNCTION        0.35          0.924        0.106
  YS02001770           JUNCTION        0.33          0.920        0.000
  YS02001774           JUNCTION        0.39          0.991        0.059
  YS02001779           JUNCTION        0.25          0.680        0.000
  YS02001783           JUNCTION        0.42          1.600        0.000
  YS02001784           JUNCTION        0.42          0.707        0.783
  YS02001786           JUNCTION        0.38          0.706        0.724
  YS02001788           JUNCTION        0.17          0.907        0.573
  YS02001790           JUNCTION        0.43          0.794        0.363
  YS02001791           JUNCTION        0.48          0.857        1.063
  YS02001793           JUNCTION        0.57          0.807        1.793
  YS02001882           JUNCTION        0.30          0.665        0.165
  YS02001884           JUNCTION        0.31          0.870        0.000
  YS02001887           JUNCTION        0.34          0.950        0.000
  YS02001890           JUNCTION        0.35          0.760        0.000
  YS02001895           JUNCTION        0.28          0.750        0.000
  YS02001898           JUNCTION        0.28          0.740        0.000
  YS02001901           JUNCTION        0.32          0.870        0.000
  YS02001904           JUNCTION        0.32          0.850        0.000
  YS02001907           JUNCTION        0.53          0.950        0.000
  YS02001910           JUNCTION        0.37          1.030        0.070
  YS02001915           JUNCTION        0.29          1.000        0.000
  YS02001918           JUNCTION        0.20          0.810        0.000
  YS02001920           JUNCTION        0.21          1.140        0.000
  YS02001923           JUNCTION        0.01          0.820        0.000
  YS02001926           JUNCTION        0.01          0.900        0.000
  YS02001929           JUNCTION        0.01          0.780        0.000
  YS02006553           JUNCTION        0.54          1.190        0.000
  YS02006556           JUNCTION        0.45          0.974        0.376
  YS02006558           JUNCTION        0.44          1.400        0.000
  YS02006561           JUNCTION        0.18          0.323        0.827
  YS02163301           JUNCTION        0.59          1.030        0.000
  YS02163601           JUNCTION        0.64          1.080        0.000
  YS02164001           JUNCTION        0.56          1.052        0.048
  YSB1154              JUNCTION        0.64          1.400        0.000
  YSB1171              JUNCTION        0.64          1.100        0.000
  YSB1174              JUNCTION        0.58          1.250        0.000
  YSB6556              JUNCTION        0.52          1.100        0.000
  
  
  *********************
  Node Flooding Summary
  *********************
  
  Flooding refers to all water that overflows a node, whether it ponds or not.
  --------------------------------------------------------------------------
                                                             Total   Maximum
                                 Maximum   Time of Max       Flood    Ponded
                        Hours       Rate    Occurrence      Volume     Depth
  Node                 Flooded       LPS   days hr:min    10^6 ltr    Meters
  --------------------------------------------------------------------------
  HS02004478              0.01      2.93      0  02:24       0.000     0.000
  HS02004480              0.01      1.13      0  02:24       0.000     0.000
  HS02004770              0.24    732.92      0  02:25       0.329     0.000
  HS02004777              0.01     75.79      0  02:24       0.001     0.000
  HS02004788              0.01    212.24      0  02:18       0.001     0.000
  HS02004792              0.24   1279.13      0  02:25       0.579     0.000
  HS02004799              0.07    116.05      0  02:24       0.013     0.000
  HS02004807              0.01      1.94      0  02:24       0.000     0.000
  HS02004817              0.01      0.13      0  02:24       0.000     0.000
  HS02004824              0.01      1.00      0  02:24       0.000     0.000
  HS02004830              0.01      0.69      0  02:24       0.000     0.000
  HS02004837              0.01      2.08      0  02:24       0.000     0.000
  HS02004842              0.01    141.92      0  02:21       0.001     0.000
  HS02004848              0.01    206.97      0  02:21       0.001     0.000
  HS02004852              0.01     54.25      0  02:21       0.000     0.000
  HS02004856              0.01    287.02      0  02:21       0.001     0.000
  HS02004862              0.01     58.98      0  02:21       0.000     0.000
  HS02004870              0.01      0.93      0  02:24       0.000     0.000
  HS02004876              0.01      1.21      0  02:24       0.000     0.000
  HS02004881              0.01      0.87      0  02:24       0.000     0.000
  HS02004901              0.29    549.73      0  02:25       0.395     0.000
  WS02006109              0.27    257.48      0  02:25       0.135     0.000
  WS02006110              0.01      0.42      0  02:24       0.000     0.000
  WS02006112              0.01      0.35      0  02:24       0.000     0.000
  WS02006115              0.01      0.40      0  02:24       0.000     0.000
  WS02006116              0.01      0.66      0  02:24       0.000     0.000
  WS02006228              0.01     21.83      0  02:24       0.000     0.000
  WS02006229              0.01     36.35      0  02:24       0.000     0.000
  WS02006230              0.50    557.81      0  02:25       0.615     0.000
  WS02006232              0.13      9.90      0  02:24       0.000     0.000
  WS02006234              0.54    128.63      0  02:42       0.162     0.000
  WS02006235              0.01     35.78      0  02:24       0.000     0.000
  WS02006240              0.01      0.54      0  02:24       0.000     0.000
  WS02006242              0.62    137.50      0  02:33       0.267     0.000
  WS02006243              0.01    120.13      0  02:03       0.000     0.000
  WS02006245              0.01     36.45      0  02:03       0.000     0.000
  WS02006247              0.01    134.98      0  02:03       0.000     0.000
  WS02006248              0.89    340.36      0  02:15       0.908     0.000
  WS02006249              1.16   1279.77      0  02:24       2.932     0.000
  WS02006251              0.01      0.68      0  02:24       0.000     0.000
  WS02006252              0.29    333.45      0  02:24       0.165     0.000
  WS02006256              0.82    294.23      0  02:32       0.446     0.000
  WS02006287              0.01      5.02      0  02:24       0.000     0.000
  YS02001580              0.01     89.03      0  02:18       0.000     0.000
  YS02001586              0.27    212.49      0  02:26       0.105     0.000
  YS02001590              0.01     15.42      0  02:24       0.000     0.000
  YS02001600              0.01      7.47      0  02:24       0.000     0.000
  YS02001601              0.40    832.46      0  02:25       0.643     0.000
  YS02001602              0.32     62.04      0  02:27       0.064     0.000
  YS02001605              0.01      1.85      0  02:24       0.000     0.000
  YS02001610              0.28    400.31      0  02:26       0.228     0.000
  YS02001616              0.01      0.81      0  02:24       0.000     0.000
  YS02001619              0.01      1.21      0  02:24       0.000     0.000
  YS02001622              0.01      0.75      0  02:24       0.000     0.000
  YS02001625              0.25   1031.69      0  02:26       0.495     0.000
  YS02001629              0.06    103.61      0  02:24       0.013     0.000
  YS02001633              0.01      0.72      0  02:24       0.000     0.000
  YS02001644              0.09    421.93      0  02:24       0.074     0.000
  YS02001751              0.01      0.94      0  02:24       0.000     0.000
  YS02001754              0.01      0.86      0  02:24       0.000     0.000
  YS02001757              0.01     44.04      0  02:24       0.000     0.000
  YS02001759              0.01      0.91      0  02:24       0.000     0.000
  YS02001779              0.06    264.83      0  02:21       0.011     0.000
  YS02001783              0.01      0.57      0  02:24       0.000     0.000
  YS02001884              0.01      1.06      0  02:24       0.000     0.000
  YS02001887              0.01      0.75      0  02:24       0.000     0.000
  YS02001890              0.06     77.74      0  02:24       0.009     0.000
  YS02001895              0.01      0.14      0  02:24       0.000     0.000
  YS02001898              0.01      0.47      0  02:24       0.000     0.000
  YS02001901              0.01      0.10      0  02:24       0.000     0.000
  YS02001904              0.01      0.47      0  02:24       0.000     0.000
  YS02001907              0.16   1108.93      0  02:24       0.341     0.000
  YS02001915              0.01      1.24      0  02:24       0.000     0.000
  YS02001918              0.01    127.36      0  02:23       0.001     0.000
  YS02001920              0.01     28.81      0  02:23       0.000     0.000
  YS02001923              0.01    123.10      0  02:23       0.000     0.000
  YS02001926              0.01     34.64      0  02:23       0.000     0.000
  YS02001929              0.01    237.17      0  02:23       0.001     0.000
  YS02006553              0.01      1.63      0  02:24       0.000     0.000
  YS02006558              0.01      2.35      0  02:24       0.000     0.000
  YS02163301              0.01      1.60      0  02:24       0.000     0.000
  YS02163601              0.01     33.23      0  02:24       0.000     0.000
  YSB1154                 0.01      0.35      0  02:24       0.000     0.000
  YSB1171                 0.15    581.64      0  02:25       0.177     0.000
  YSB6556                 0.01      0.26      0  02:24       0.000     0.000
  JK-storage              0.30    597.38      0  02:35       0.335     0.000
  
  
  **********************
  Storage Volume Summary
  **********************
  
  --------------------------------------------------------------------------------------------------
                         Average     Avg  Evap Exfil       Maximum     Max    Time of Max    Maximum
                          Volume    Pcnt  Pcnt  Pcnt        Volume    Pcnt     Occurrence    Outflow
  Storage Unit           1000 m3    Full  Loss  Loss       1000 m3    Full    days hr:min        LPS
  --------------------------------------------------------------------------------------------------
  CC-storage               2.984      47     0     0         4.504      70       0  02:40    1783.53
  JK-storage               0.167      57     0     0         0.291     100       0  02:35    2300.00
  XR-storage               0.956      66     0     0         1.111      77       0  08:00     380.00
  
  
  ***********************
  Outfall Loading Summary
  ***********************
  
  -----------------------------------------------------------
                         Flow       Avg       Max       Total
                         Freq      Flow      Flow      Volume
  Outfall Node           Pcnt       LPS       LPS    10^6 ltr
  -----------------------------------------------------------
  CC-1                  14.86    683.00    683.00       2.701
  CC-2                  10.42    683.00    683.00       1.841
  JK-1                  20.02    302.57   1000.00       1.206
  JK-2                  12.28    105.97   1000.00       0.368
  WSC                   99.96    530.52   1499.20      12.695
  -----------------------------------------------------------
  System                31.51   2305.06   1499.20      18.811
  
  
  ********************
  Link Flow Summary
  ********************
  
  -----------------------------------------------------------------------------
                                 Maximum  Time of Max   Maximum    Max/    Max/
                                  |Flow|   Occurrence   |Veloc|    Full    Full
  Link                 Type          LPS  days hr:min     m/sec    Flow   Depth
  -----------------------------------------------------------------------------
  1                    CONDUIT   1499.20     0  02:28      3.69    0.52    0.51
  HS02004478WS02006287 CONDUIT   2311.43     0  02:24      2.61    0.65    1.00
  HS02004479HS02004480 CONDUIT    410.64     0  02:21      0.59    0.40    1.00
  HS02004480HS02004478 CONDUIT   2083.16     0  02:19      2.98    8.77    1.00
  HS02004770HS02004777 CONDUIT    747.65     0  02:17      1.07    1.37    1.00
  HS02004777HS02004785 CONDUIT    762.72     0  02:17      1.14    0.94    1.00
  HS02004785HS02004788 CONDUIT    636.26     0  02:18      1.36    4.80    1.00
  HS02004788HS02004792 CONDUIT    810.96     0  02:18      1.42    0.54    1.00
  HS02004792HS02004799 CONDUIT   1627.09     0  02:19      2.32    1.00    1.00
  HS02004799HS02004480 CONDUIT   1761.36     0  02:19      2.52    2.23    1.00
  HS02004802HS02004478 CONDUIT    964.37     0  02:25      1.38    0.85    1.00
  HS02004807HS02004802 CONDUIT    963.91     0  02:25      1.38    1.84    1.00
  HS02004817HS02004807 CONDUIT    648.91     0  02:26      0.93    0.38    1.00
  HS02004817HS02004824 CONDUIT    647.69     0  02:26      0.93    0.29    1.00
  HS02004824HS02004830 CONDUIT    616.91     0  02:18      0.91    0.81    1.00
  HS02004830HS02004837 CONDUIT    639.53     0  02:19      1.00    0.64    1.00
  HS02004837HS02004842 CONDUIT    791.07     0  02:19      1.13    0.47    1.00
  HS02004842HS02004848 CONDUIT    790.57     0  02:19      1.24    0.46    1.00
  HS02004848HS02004852 CONDUIT   1021.95     0  02:21      1.60    1.15    1.00
  HS02004852HS02004856 CONDUIT    990.72     0  02:21      1.48    1.13    1.00
  HS02004856HS02004862 CONDUIT   1062.09     0  02:21      1.69    1.06    1.00
  HS02004862HS02004870 CONDUIT   1165.51     0  02:21      1.94    1.26    1.00
  HS02004870HS02004876 CONDUIT   1147.99     0  02:21      1.78    0.76    1.00
  HS02004876HS02004881 CONDUIT   1326.25     0  02:24      2.39   14.11    1.00
  HS02004881HS02006253 CONDUIT   1428.67     0  02:24      2.72    0.28    1.00
  HS02004901HS02004770 CONDUIT    265.64     0  02:32      0.38    1.00    1.00
  WS02001211WS02001212 CONDUIT    210.86     0  03:22      0.54    0.16    0.69
  WS02001212WS02001213 CONDUIT    214.76     0  03:22      1.04    0.33    0.56
  WS02001213WS02003059 CONDUIT    222.00     0  03:22      0.47    0.37    0.89
  WS02003059WS02003060 CONDUIT    229.87     0  03:23      0.67    0.15    0.81
  WS02003060WS02003069 CONDUIT   1506.18     0  02:26      2.09    0.59    0.61
  WS02003066WSF200     CONDUIT   1309.52     0  02:25      3.28    0.22    0.39
  WS02003067WS02003066 CONDUIT   1308.92     0  02:25      2.00    0.42    0.56
  WS02003069WS02003072 CONDUIT   1500.81     0  02:26      1.89    0.72    0.66
  WS02003072WS02003073 CONDUIT   1499.34     0  02:27      2.05    3.24    0.62
  WS02004138WS02004139 CONDUIT    190.00     0  00:31      2.15    0.04    0.42
  WS02004139WS02001211 CONDUIT    200.78     0  02:28      0.54    0.25    0.60
  WS02004401WS02004402 CONDUIT   1311.04     0  02:24      1.67    1.57    1.00
  WS02004402WS02004403 CONDUIT   1319.58     0  02:24      1.68    1.90    1.00
  WS02004403WS02004404 CONDUIT   1331.23     0  02:24      1.69    0.96    1.00
  WS02004404WS02004405 CONDUIT   1351.49     0  02:24      1.72   13.24    1.00
  WS02004405WS02004406 CONDUIT   1370.11     0  02:24      1.74    2.70    1.00
  WS02004406WS02004407 CONDUIT   1374.47     0  02:24      1.78    0.61    0.97
  WS02004407WS02004409 CONDUIT   1299.28     0  02:25      1.82    0.46    0.97
  WS02004409WS02004410 CONDUIT   1298.83     0  02:25      1.65    1.68    1.00
  WS02004410WS02004411 CONDUIT   1299.55     0  02:25      1.65    1.77    1.00
  WS02004411WS02004412 CONDUIT   1299.09     0  02:24      1.65    1.85    1.00
  WS02004412WS02004413 CONDUIT   1300.08     0  02:24      1.66    0.87    1.00
  WS02004413WS02003067 CONDUIT   1300.23     0  02:24      2.01    0.56    0.77
  WS02006109WS02006110 CONDUIT   1119.59     0  02:35      2.23    2.15    1.00
  WS02006110WS02006113 CONDUIT   1119.53     0  02:35      2.23    1.02    1.00
  WS02006111WS02006112 CONDUIT   1119.81     0  02:35      2.23    0.53    1.00
  WS02006112WS02006115 CONDUIT   1294.79     0  02:24      1.65    0.76    1.00
  WS02006113WS02006111 CONDUIT   1119.76     0  02:35      2.60    1.34    1.00
  WS02006115WS02006116 CONDUIT   1292.54     0  02:24      1.65    1.66    1.00
  WS02006116WS02004401 CONDUIT   1301.58     0  02:24      1.66    1.79    1.00
  WS02006228WS02006109 CONDUIT   1276.05     0  02:24      2.54    5.58    1.00
  WS02006229WS02006228 CONDUIT   1286.67     0  02:24      2.56    4.26    1.00
  WS02006230WS02006229 CONDUIT   1006.70     0  02:24      2.62   22.40    1.00
  WS02006231WS02006230 CONDUIT    496.68     0  02:24      1.29    7.53    1.00
  WS02006232WS02006231 CONDUIT    492.12     0  02:24      1.28    1.03    1.00
  WS02006234WS02006232 CONDUIT    483.33     0  02:24      1.41    0.98    1.00
  WS02006235WS02006234 CONDUIT    453.45     0  02:24      1.23    4.78    1.00
  WS02006238WS02006235 CONDUIT    415.90     0  02:33      1.45    0.93    1.00
  WS02006239WS02006238 CONDUIT    415.48     0  02:33      1.12    1.33    1.00
  WS02006240WS02006239 CONDUIT    415.09     0  02:33      1.26    1.31    1.00
  WS02006242WS02006240 CONDUIT    415.16     0  02:33      1.14    1.65    1.00
  WS02006243WS02006242 CONDUIT    364.35     0  03:15      1.34    0.78    1.00
  WS02006245WS02006243 CONDUIT    371.48     0  00:05      1.39    1.10    1.00
  WS02006247WS02006245 CONDUIT    383.09     0  00:05      1.37    3.04    1.00
  WS02006248WS02006247 CONDUIT    385.59     0  00:04      1.38    0.84    1.00
  WS02006249WS02006248 CONDUIT    390.96     0  00:04      1.38    2.14    1.00
  WS02006251WS02006249 CONDUIT   1341.49     0  02:24      3.49    3.87    1.00
  WS02006252WS02006251 CONDUIT    408.76     0  02:46      3.88    1.50    1.00
  WS02006253WS02006251 CONDUIT   1466.83     0  02:24      3.81    4.40    1.00
  WS02006256WS02006235 CONDUIT    288.93     0  00:00      4.23    3.06    1.00
  WS02006280WS02006229 CONDUIT   2289.30     0  02:24      4.33    0.49    1.00
  WS02006284WS02006280 CONDUIT   2286.09     0  02:24      2.96    0.96    1.00
  WS02006287WS02006284 CONDUIT   2291.23     0  02:24      2.92    1.06    1.00
  WSF200WS02003060     CONDUIT   1325.67     0  02:25      2.32    0.29    0.50
  YS02001580YS02001583 CONDUIT    105.54     0  02:18      0.62    0.41    1.00
  YS02001583YS02001586 CONDUIT    153.39     0  02:18      0.64    0.23    1.00
  YS02001586YS02001590 CONDUIT    346.97     0  02:24      1.27    0.61    1.00
  YS02001590YS02001593 CONDUIT    338.08     0  02:24      1.20    2.12    1.00
  YS02001593YS02001596 CONDUIT    318.13     0  02:24      1.73    0.50    1.00
  YS02001596YS02001600 CONDUIT    318.48     0  02:24      1.24    0.62    1.00
  YS02001600YS02001601 CONDUIT    318.55     0  02:24      1.13    0.55    1.00
  YS02001601YS02001602 CONDUIT    506.47     0  02:17      1.79    1.83    1.00
  YS02001602YS02001605 CONDUIT    506.19     0  02:17      1.79   10.71    1.00
  YS02001605YS02001607 CONDUIT    505.69     0  02:17      1.79    2.77    1.00
  YS02001607YS02001610 CONDUIT    503.79     0  02:17      0.64    0.48    1.00
  YS02001610YS02001613 CONDUIT    505.94     0  02:17      0.64    0.58    1.00
  YS02001613YS02001616 CONDUIT    504.74     0  02:17      0.65    0.43    1.00
  YS02001616YS02001619 CONDUIT    498.38     0  02:17      0.66    0.87    1.00
  YS02001619YS02001622 CONDUIT    916.08     0  02:19      1.18    1.35    1.00
  YS02001622YS02001625 CONDUIT    915.95     0  02:19      1.17    0.49    1.00
  YS02001625YS02001629 CONDUIT    916.31     0  02:19      1.17    0.44    1.00
  YS02001629YS02163301 CONDUIT    915.69     0  02:19      1.17    1.13    1.00
  YS02001633YS02163601 CONDUIT   1321.45     0  02:20      1.68    1.39    1.00
  YS02001641YS02001644 CONDUIT   1316.54     0  02:20      1.68    4.26    1.00
  YS02001644YS02001647 CONDUIT   1678.89     0  02:20      2.16    0.99    1.00
  YS02001647YS02001649 CONDUIT   1690.77     0  02:20      2.29    0.89    1.00
  YS02001649YS02001757 CONDUIT   1858.18     0  02:19      2.38    1.13    1.00
  YS02001652YS02001649 CONDUIT    682.08     0  02:24      0.87    0.34    1.00
  YS02001655YS02001652 CONDUIT    679.07     0  02:24      1.27    0.33    1.00
  YS02001658YS02001655 CONDUIT    677.22     0  02:24      1.88    0.29    1.00
  YS02001661YS02001658 CONDUIT    675.95     0  02:24      2.23    0.27    1.00
  YS02001664YS02001661 CONDUIT    833.08     0  02:25      2.18    0.26    0.73
  YS02001745YS02001748 CONDUIT    537.12     0  02:22      2.04    0.21    0.87
  YS02001748YS02001751 CONDUIT    398.02     0  02:24      1.61    0.20    1.00
  YS02001751YS02001754 CONDUIT    398.99     0  02:24      1.42    0.19    1.00
  YS02001754YS02001757 CONDUIT    399.07     0  02:24      0.51    0.16    1.00
  YS02001757CaochengTiaoxuchi CONDUIT   3044.38     0  02:24      3.88    1.32    1.00
  YS02001759YS02001757 CONDUIT   1207.19     0  02:25      1.54    0.86    1.00
  YS02001762YS02001759 CONDUIT    689.56     0  02:26      0.88    0.79    1.00
  YS02001765YS02001762 CONDUIT    689.21     0  02:26      0.88    0.65    1.00
  YS02001767YS02001765 CONDUIT    687.89     0  02:26      0.88    0.87    1.00
  YS02001770YS02001767 CONDUIT    686.86     0  02:26      0.87    2.72    1.00
  YS02001774YS02001770 CONDUIT    352.48     0  02:21      0.45    0.23    1.00
  YS02001779YS02001774 CONDUIT    355.96     0  02:21      0.46    0.18    1.00
  YS02001783YS02001784 CONDUIT   1155.51     0  02:25      2.30    1.59    1.00
  YS02001784YS02001785 CONDUIT   1156.69     0  02:25      2.30    2.69    1.00
  YS02001786YS02001788 CONDUIT   1157.18     0  02:25      2.47    2.23    1.00
  YS02001788YS02001790 CONDUIT   1169.62     0  02:23      2.72    0.86    1.00
  YS02001790YS02001791 CONDUIT   1283.99     0  02:24      3.43    1.40    1.00
  YS02001791YS02001793 CONDUIT   1225.10     0  02:24      6.73    0.53    1.00
  YS02001793JiankangQianchi CONDUIT   1241.82     0  02:24      2.47    0.10    1.00
  YS02001882YS02001884 CONDUIT     43.99     0  02:20      0.09    0.05    1.00
  YS02001884YS02001887 CONDUIT     73.36     0  02:20      0.09    0.10    1.00
  YS02001887YS02001890 CONDUIT    576.20     0  02:25      0.73    0.99    1.00
  YS02001890YS02001895 CONDUIT    513.75     0  02:26      0.65    0.24    1.00
  YS02001895YS02001898 CONDUIT    513.20     0  02:26      0.65    0.89    1.00
  YS02001898YS02001901 CONDUIT    513.13     0  02:26      0.65    0.33    1.00
  YS02001901YS02001904 CONDUIT    512.71     0  02:26      0.65    0.80    1.00
  YS02001904YS02001907 CONDUIT    524.46     0  02:24      0.67    0.18    1.00
  YS02001907YS02006553 CONDUIT    800.27     0  02:33      0.89    0.94    1.00
  YS02001910YS02001907 CONDUIT   1023.63     0  02:23      1.30    0.58    1.00
  YS02001915YS02001910 CONDUIT   1062.26     0  02:24      1.35    0.53    1.00
  YS02001918YS02001915 CONDUIT    460.90     0  02:23      0.59    0.25    1.00
  YS02001920YS02001918 CONDUIT    494.40     0  02:24      0.64    0.48    1.00
  YS02001923YS02001920 CONDUIT    495.13     0  02:24      0.72    0.22    1.00
  YS02001926YS02001923 CONDUIT    427.96     0  02:23      0.97    0.61    1.00
  YS02001929YS02001926 CONDUIT    425.45     0  02:23      1.14    0.20    1.00
  YS02006553YS02006556 CONDUIT    801.59     0  02:33      1.02    0.69    1.00
  YS02006556YS02006558 CONDUIT    802.28     0  02:33      1.02    0.63    1.00
  YS02006558YS02006561 CONDUIT   1155.14     0  02:25      4.09    2.55    1.00
  YS02006561YS02001783 CONDUIT   1155.43     0  02:25      2.30    0.60    1.00
  YS02163301YS02001633 CONDUIT    915.67     0  02:18      1.17    0.86    1.00
  YS02163601YS02164001 CONDUIT   1320.52     0  02:20      1.68    1.17    1.00
  YS02164001YS02001641 CONDUIT   1318.84     0  02:20      1.68    1.80    1.00
  YSB1154YSB6556       CONDUIT    320.87     0  02:25      0.83    0.58    1.00
  YSB1171HS02004479    CONDUIT    409.23     0  02:21      0.81    0.27    1.00
  YSB1174YSB1171       CONDUIT    271.93     0  02:25      0.71    0.42    1.00
  YSB6556YSB1171       CONDUIT    321.79     0  02:25      0.84    0.33    1.00
  CC-R1                PUMP       683.00     0  00:00              1.00
  CC-R2                PUMP       683.00     0  00:00              1.00
  CC-S1                PUMP       200.00     0  00:00              1.00
  CC-S2                PUMP       200.00     0  00:00              1.00
  JK-R1                PUMP      1000.00     0  00:00              1.00
  JK-R2                PUMP      1000.00     0  00:00              1.00
  JK-S                 PUMP       300.00     0  00:00              1.00
  XR-1                 PUMP        95.00     0  00:00              1.00
  XR-2                 PUMP        95.00     0  00:00              1.00
  XR-3                 PUMP        95.00     0  00:00              1.00
  XR-4                 PUMP        95.00     0  00:00              1.00
  
  
  ***************************
  Flow Classification Summary
  ***************************
  
  -------------------------------------------------------------------------------------
                      Adjusted    ---------- Fraction of Time in Flow Class ---------- 
                       /Actual         Up    Down  Sub   Sup   Up    Down  Norm  Inlet 
  Conduit               Length    Dry  Dry   Dry   Crit  Crit  Crit  Crit  Ltd   Ctrl  
  -------------------------------------------------------------------------------------
  1                       1.00   0.00  0.00  0.00  0.00  1.00  0.00  0.00  0.32  0.00
  HS02004478WS02006287    1.00   0.12  0.00  0.00  0.62  0.26  0.00  0.00  0.61  0.00
  HS02004479HS02004480    1.00   0.03  0.00  0.00  0.97  0.00  0.00  0.00  0.12  0.00
  HS02004480HS02004478    1.00   0.09  0.00  0.00  0.52  0.00  0.00  0.38  0.00  0.00
  HS02004770HS02004777    1.00   0.00  0.09  0.00  0.91  0.00  0.00  0.00  0.03  0.00
  HS02004777HS02004785    1.00   0.00  0.00  0.00  1.00  0.00  0.00  0.00  0.13  0.00
  HS02004785HS02004788    1.00   0.00  0.00  0.00  1.00  0.00  0.00  0.00  0.00  0.00
  HS02004788HS02004792    1.00   0.00  0.00  0.00  0.99  0.01  0.00  0.00  0.92  0.00
  HS02004792HS02004799    1.00   0.00  0.00  0.00  0.99  0.01  0.00  0.00  0.89  0.00
  HS02004799HS02004480    1.00   0.00  0.02  0.00  0.88  0.00  0.09  0.00  0.00  0.00
  HS02004802HS02004478    1.00   0.09  0.01  0.00  0.90  0.00  0.00  0.00  0.03  0.00
  HS02004807HS02004802    1.00   0.09  0.00  0.00  0.90  0.00  0.00  0.01  0.00  0.00
  HS02004817HS02004807    1.00   0.00  0.09  0.00  0.91  0.00  0.00  0.00  0.01  0.00
  HS02004817HS02004824    1.00   0.00  0.00  0.00  1.00  0.00  0.00  0.00  0.86  0.00
  HS02004824HS02004830    1.00   0.00  0.00  0.00  1.00  0.00  0.00  0.00  0.01  0.00
  HS02004830HS02004837    1.00   0.00  0.00  0.00  1.00  0.00  0.00  0.00  0.91  0.00
  HS02004837HS02004842    1.00   0.00  0.00  0.00  1.00  0.00  0.00  0.00  0.11  0.00
  HS02004842HS02004848    1.00   0.00  0.09  0.00  0.91  0.00  0.00  0.00  0.59  0.00
  HS02004848HS02004852    1.00   0.09  0.00  0.00  0.91  0.00  0.00  0.00  0.69  0.00
  HS02004852HS02004856    1.00   0.09  0.01  0.00  0.90  0.00  0.00  0.00  0.71  0.00
  HS02004856HS02004862    1.00   0.00  0.13  0.00  0.87  0.00  0.00  0.00  0.75  0.00
  HS02004862HS02004870    1.00   0.00  0.00  0.00  1.00  0.00  0.00  0.00  0.04  0.00
  HS02004870HS02004876    1.00   0.00  0.00  0.00  0.99  0.01  0.00  0.00  0.88  0.00
  HS02004876HS02004881    1.00   0.01  0.00  0.00  0.81  0.17  0.00  0.00  0.00  0.00
  HS02004881HS02006253    1.00   0.03  0.01  0.00  0.38  0.01  0.00  0.56  0.17  0.00
  HS02004901HS02004770    1.00   0.09  0.00  0.00  0.91  0.00  0.00  0.00  0.00  0.00
  WS02001211WS02001212    1.00   0.00  0.02  0.00  0.98  0.00  0.00  0.00  0.00  0.00
  WS02001212WS02001213    1.00   0.02  0.00  0.00  0.37  0.00  0.61  0.00  0.00  0.00
  WS02001213WS02003059    1.00   0.00  0.00  0.00  1.00  0.00  0.00  0.00  0.00  0.00
  WS02003059WS02003060    1.00   0.00  0.00  0.00  1.00  0.00  0.00  0.00  0.03  0.00
  WS02003060WS02003069    1.00   0.00  0.00  0.00  0.99  0.01  0.00  0.00  0.51  0.00
  WS02003066WSF200        1.00   0.09  0.00  0.00  0.00  0.91  0.00  0.00  0.68  0.00
[...]
  WSF200WS02003060        1.00   0.00  0.09  0.00  0.59  0.33  0.00  0.00  0.64  0.00
  YS02001580YS02001583    1.00   0.26  0.50  0.00  0.24  0.00  0.00  0.00  0.65  0.00
  YS02001583YS02001586    1.00   0.35  0.35  0.00  0.30  0.00  0.00  0.00  0.65  0.00
  YS02001586YS02001590    1.00   0.09  0.00  0.00  0.54  0.03  0.00  0.34  0.36  0.00
  YS02001590YS02001593    1.00   0.09  0.01  0.00  0.10  0.00  0.81  0.00  0.00  0.00
  YS02001593YS02001596    1.00   0.10  0.00  0.00  0.11  0.01  0.00  0.78  0.02  0.00
  YS02001596YS02001600    1.00   0.10  0.00  0.00  0.20  0.02  0.00  0.69  0.05  0.00
  YS02001600YS02001601    1.00   0.09  0.01  0.00  0.90  0.00  0.00  0.00  0.64  0.00
  YS02001601YS02001602    1.00   0.09  0.01  0.00  0.90  0.00  0.00  0.00  0.00  0.00
  YS02001602YS02001605    1.00   0.10  0.00  0.00  0.90  0.00  0.00  0.00  0.00  0.00
  YS02001605YS02001607    1.00   0.10  0.00  0.00  0.90  0.00  0.00  0.00  0.00  0.00
  YS02001607YS02001610    1.00   0.09  0.01  0.00  0.90  0.00  0.00  0.00  0.02  0.00
  YS02001610YS02001613    1.00   0.09  0.00  0.00  0.91  0.00  0.00  0.00  0.01  0.00
  YS02001613YS02001616    1.00   0.09  0.00  0.00  0.91  0.00  0.00  0.00  0.01  0.00
  YS02001616YS02001619    1.00   0.09  0.00  0.00  0.91  0.00  0.00  0.00  0.00  0.00
  YS02001619YS02001622    1.00   0.09  0.00  0.00  0.91  0.00  0.00  0.00  0.34  0.00
  YS02001622YS02001625    1.00   0.09  0.00  0.00  0.91  0.00  0.00  0.00  0.06  0.00
  YS02001625YS02001629    1.00   0.09  0.04  0.00  0.14  0.00  0.72  0.00  0.00  0.00
  YS02001629YS02163301    1.00   0.12  0.01  0.00  0.88  0.00  0.00  0.00  0.00  0.00
  YS02001633YS02163601    1.00   0.00  0.00  0.00  1.00  0.00  0.00  0.00  0.15  0.00
  YS02001641YS02001644    1.00   0.00  0.00  0.00  1.00  0.00  0.00  0.00  0.00  0.00
  YS02001644YS02001647    1.00   0.00  0.13  0.00  0.87  0.00  0.00  0.00  0.00  0.00
  YS02001647YS02001649    1.00   0.00  0.13  0.00  0.76  0.10  0.00  0.00  0.60  0.00
  YS02001649YS02001757    1.00   0.00  0.00  0.00  0.90  0.10  0.00  0.00  0.20  0.00
  YS02001652YS02001649    1.00   0.00  0.00  0.00  0.97  0.03  0.00  0.00  0.20  0.00
  YS02001655YS02001652    1.00   0.00  0.00  0.00  0.35  0.08  0.00  0.57  0.16  0.00
  YS02001658YS02001655    1.00   0.00  0.10  0.00  0.55  0.35  0.00  0.00  0.73  0.00
  YS02001661YS02001658    1.00   0.10  0.00  0.00  0.41  0.48  0.00  0.00  0.73  0.00
  YS02001664YS02001661    1.00   0.09  0.00  0.00  0.79  0.12  0.00  0.00  0.86  0.00
  YS02001745YS02001748    1.00   0.00  0.00  0.00  0.07  0.01  0.00  0.92  0.03  0.00
  YS02001748YS02001751    1.00   0.00  0.00  0.00  0.72  0.28  0.00  0.00  0.77  0.00
  YS02001751YS02001754    1.00   0.00  0.00  0.00  0.27  0.02  0.00  0.71  0.12  0.00
  YS02001754YS02001757    1.00   0.00  0.00  0.00  1.00  0.00  0.00  0.00  0.30  0.00
  YS02001757CaochengTiaoxuchi    1.00   0.00  0.00  0.00  1.00  0.00  0.00  0.00  0.27  0.00
  YS02001759YS02001757    1.00   0.00  0.00  0.00  1.00  0.00  0.00  0.00  0.08  0.00
  YS02001762YS02001759    1.00   0.00  0.00  0.00  1.00  0.00  0.00  0.00  0.05  0.00
  YS02001765YS02001762    1.00   0.00  0.00  0.00  1.00  0.00  0.00  0.00  0.17  0.00
  YS02001767YS02001765    1.00   0.00  0.00  0.00  1.00  0.00  0.00  0.00  0.00  0.00
  YS02001770YS02001767    1.00   0.00  0.00  0.00  1.00  0.00  0.00  0.00  0.00  0.00
  YS02001774YS02001770    1.00   0.00  0.09  0.00  0.90  0.00  0.00  0.00  0.04  0.00
  YS02001779YS02001774    1.00   0.00  0.00  0.00  1.00  0.00  0.00  0.00  0.76  0.00
  YS02001783YS02001784    1.00   0.00  0.14  0.00  0.86  0.00  0.00  0.00  0.57  0.00
  YS02001784YS02001785    1.00   0.00  0.00  0.00  1.00  0.00  0.00  0.00  0.19  0.00
  YS02001786YS02001788    1.00   0.00  0.00  0.00  0.76  0.24  0.00  0.00  0.00  0.00
  YS02001788YS02001790    1.00   0.00  0.00  0.00  0.24  0.76  0.00  0.00  0.83  0.00
  YS02001790YS02001791    1.00   0.00  0.00  0.00  0.10  0.90  0.00  0.00  0.09  0.00
  YS02001791YS02001793    1.00   0.00  0.00  0.00  0.10  0.90  0.00  0.00  0.02  0.00
  YS02001793JiankangQianchi    1.00   0.00  0.00  0.00  0.99  0.01  0.00  0.00  0.89  0.00
  YS02001882YS02001884    1.00   0.11  0.01  0.00  0.88  0.00  0.00  0.00  0.00  0.00
  YS02001884YS02001887    1.00   0.04  0.04  0.00  0.92  0.00  0.00  0.00  0.00  0.00
  YS02001887YS02001890    1.00   0.00  0.00  0.00  0.98  0.00  0.02  0.00  0.00  0.00
  YS02001890YS02001895    1.00   0.00  0.12  0.00  0.87  0.00  0.00  0.00  0.00  0.00
  YS02001895YS02001898    1.00   0.13  0.00  0.00  0.86  0.00  0.01  0.00  0.00  0.00
  YS02001898YS02001901    1.00   0.13  0.00  0.00  0.87  0.00  0.00  0.00  0.01  0.00
  YS02001901YS02001904    1.00   0.12  0.00  0.00  0.88  0.00  0.00  0.00  0.00  0.00
  YS02001904YS02001907    1.00   0.00  0.12  0.00  0.88  0.00  0.00  0.00  0.00  0.00
  YS02001907YS02006553    1.00   0.00  0.02  0.00  0.98  0.00  0.00  0.00  0.00  0.00
  YS02001910YS02001907    1.00   0.00  0.00  0.00  0.98  0.00  0.00  0.02  0.12  0.00
  YS02001915YS02001910    1.00   0.00  0.00  0.00  0.97  0.03  0.00  0.00  0.18  0.00
  YS02001918YS02001915    1.00   0.00  0.00  0.00  0.98  0.01  0.00  0.00  0.78  0.00
  YS02001920YS02001918    1.00   0.00  0.00  0.00  1.00  0.00  0.00  0.00  0.00  0.00
  YS02001923YS02001920    1.00   0.00  0.00  0.00  1.00  0.00  0.00  0.00  0.95  0.00
  YS02001926YS02001923    1.00   0.00  0.05  0.00  0.04  0.00  0.91  0.00  0.00  0.00
  YS02001929YS02001926    1.00   0.00  0.09  0.00  0.91  0.00  0.00  0.00  0.84  0.00
  YS02006553YS02006556    1.00   0.01  0.00  0.00  0.99  0.00  0.00  0.00  0.03  0.00
  YS02006556YS02006558    1.00   0.00  0.00  0.00  1.00  0.00  0.00  0.00  0.00  0.00
  YS02006558YS02006561    1.00   0.14  0.00  0.00  0.05  0.81  0.00  0.00  0.17  0.00
  YS02006561YS02001783    1.00   0.14  0.00  0.00  0.11  0.75  0.00  0.00  0.72  0.00
  YS02163301YS02001633    1.00   0.00  0.12  0.00  0.88  0.00  0.00  0.00  0.00  0.00
  YS02163601YS02164001    1.00   0.00  0.06  0.00  0.94  0.00  0.00  0.00  0.00  0.00
  YS02164001YS02001641    1.00   0.00  0.05  0.00  0.94  0.00  0.00  0.00  0.06  0.00
  YSB1154YSB6556          1.00   0.09  0.00  0.00  0.91  0.00  0.00  0.00  0.02  0.00
  YSB1171HS02004479       1.00   0.03  0.00  0.00  0.96  0.00  0.00  0.01  0.10  0.00
  YSB1174YSB1171          1.00   0.04  0.03  0.00  0.94  0.00  0.00  0.00  0.00  0.00
  YSB6556YSB1171          1.00   0.03  0.06  0.00  0.91  0.00  0.00  0.00  0.00  0.00
  
  
  *************************
  Conduit Surcharge Summary
  *************************
  
  ----------------------------------------------------------------------------
                                                           Hours        Hours 
                         --------- Hours Full --------   Above Full   Capacity
  Conduit                Both Ends  Upstream  Dnstream   Normal Flow   Limited
  ----------------------------------------------------------------------------
  HS02004478WS02006287        0.32      0.32      0.47      0.01         0.01
  HS02004479HS02004480        0.47      0.47      0.49      0.01         0.01
  HS02004480HS02004478        0.41      0.46      0.41      1.42         0.41
  HS02004770HS02004777        0.38      0.38      0.39      0.09         0.05
  HS02004777HS02004785        0.34      0.34      0.39      0.01         0.01
  HS02004785HS02004788        0.33      0.34      0.33      1.10         0.32
  HS02004788HS02004792        0.33      0.33      0.44      0.01         0.01
  HS02004792HS02004799        0.44      0.44      0.55      0.01         0.01
  HS02004799HS02004480        0.46      0.46      0.55      0.62         0.01
  HS02004802HS02004478        0.42      0.42      0.48      0.01         0.01
  HS02004807HS02004802        0.45      0.45      0.47      0.13         0.13
  HS02004817HS02004807        0.45      0.45      0.92      0.01         0.01
  HS02004817HS02004824        0.34      0.34      0.92      0.01         0.01
  HS02004824HS02004830        0.31      0.31      0.34      0.01         0.01
  HS02004830HS02004837        0.28      0.28      0.31      0.01         0.01
  HS02004837HS02004842        0.28      0.28      0.39      0.01         0.01
  HS02004842HS02004848        0.24      0.24      0.39      0.01         0.01
  HS02004848HS02004852        0.24      0.24      0.26      0.03         0.01
  HS02004852HS02004856        0.26      0.26      0.28      0.02         0.01
  HS02004856HS02004862        0.25      0.25      0.28      0.01         0.01
  HS02004862HS02004870        0.28      0.28      0.30      0.06         0.05
  HS02004870HS02004876        0.30      0.30      0.36      0.01         0.01
  HS02004876HS02004881        0.34      0.36      0.34      1.12         0.33
  HS02004881HS02006253        0.34      0.34      1.15      0.01         0.01
  HS02004901HS02004770        0.38      0.38      0.39      0.01         0.01
  WS02003072WS02003073        0.01      0.01      0.01      1.94         0.01
  WS02004401WS02004402        1.21      1.21      1.22      1.05         1.05
  WS02004402WS02004403        1.22      1.22      1.23      1.21         1.20
  WS02004403WS02004404        1.23      1.23      1.30      0.01         0.01
  WS02004404WS02004405        1.29      1.30      1.29      2.82         1.29
  WS02004405WS02004406        1.27      1.29      1.27      1.46         1.27
  WS02004406WS02004407        0.01      0.01      1.27      0.01         0.01
  WS02004407WS02004409        0.01      0.01      0.76      0.01         0.01
  WS02004409WS02004410        0.73      0.76      0.73      1.14         0.73
  WS02004410WS02004411        0.64      0.73      0.64      1.19         0.64
  WS02004411WS02004412        0.56      0.64      0.56      1.21         0.56
  WS02004412WS02004413        0.56      0.56      0.99      0.01         0.01
  WS02004413WS02003067        0.01      0.01      0.99      0.01         0.01
  WS02006109WS02006110        1.40      1.40      1.75      1.40         0.01
  WS02006110WS02006113        0.96      0.96      1.73      0.21         0.01
  WS02006111WS02006112        0.95      0.95      1.87      0.01         0.01
  WS02006112WS02006115        1.15      1.15      1.50      0.01         0.01
  WS02006113WS02006111        0.95      0.96      0.96      1.04         0.95
  WS02006115WS02006116        1.16      1.16      1.17      1.12         1.11
  WS02006116WS02004401        1.21      1.21      1.21      1.20         1.20
  WS02006228WS02006109        1.70      1.75      1.70      2.02         1.70
  WS02006229WS02006228        1.69      1.71      1.69      1.88         1.69
  WS02006230WS02006229        1.78      1.79      1.78      2.79         0.81
  WS02006231WS02006230        1.26      1.26      1.29      2.28         0.77
  WS02006232WS02006231        1.28      1.28      1.45      0.01         0.10
  WS02006234WS02006232        1.32      1.32      1.45      0.01         0.01
  WS02006235WS02006234        1.29      1.29      1.32      1.98         0.73
  WS02006238WS02006235        1.34      1.34      1.37      0.01         0.26
  WS02006239WS02006238        1.33      1.33      1.34      0.64         0.03
  WS02006240WS02006239        1.27      1.27      1.28      0.64         0.02
  WS02006242WS02006240        1.26      1.26      1.32      0.95         0.64
  WS02006243WS02006242        1.24      1.24      1.30      0.01         0.01
  WS02006245WS02006243        1.23      1.23      1.24      0.06         0.02
  WS02006247WS02006245        1.23      1.24      1.23      1.63         0.29
  WS02006248WS02006247        1.22      1.22      1.23      0.01         0.01
  WS02006249WS02006248        1.21      1.22      1.22      0.75         0.01
  WS02006251WS02006249        1.21      1.21      1.22      1.15         1.10
  WS02006252WS02006251        1.22      1.22      1.25      0.78         0.01
  WS02006253WS02006251        1.20      1.21      1.21      0.57         0.01
  WS02006256WS02006235        2.44      2.45      7.95      0.58         0.01
  WS02006280WS02006229        0.57      0.57      0.67      0.01         0.01
  WS02006284WS02006280        0.49      0.49      0.56      0.01         0.01
  WS02006287WS02006284        0.41      0.41      0.50      0.16         0.16
  YS02001580YS02001583        0.36      0.36      0.39      0.01         0.01
  YS02001583YS02001586        0.36      0.36      0.46      0.01         0.01
  YS02001586YS02001590        0.46      0.46      0.52      0.01         0.01
  YS02001590YS02001593        0.52      0.52      0.53      0.53         0.01
  YS02001593YS02001596        0.53      0.53      0.61      0.01         0.01
  YS02001596YS02001600        0.65      0.65      0.73      0.01         0.01
  YS02001600YS02001601        0.79      0.79      1.04      0.01         0.01
  YS02001601YS02001602        0.94      0.94      1.08      0.73         0.01
  YS02001602YS02001605        0.90      0.90      0.94      1.94         0.01
  YS02001605YS02001607        0.85      0.90      0.85      1.01         0.85
  YS02001607YS02001610        0.50      0.50      0.51      0.01         0.01
  YS02001610YS02001613        0.49      0.49      0.51      0.01         0.01
  YS02001613YS02001616        0.46      0.46      0.49      0.01         0.01
  YS02001616YS02001619        0.44      0.44      0.46      0.01         0.01
  YS02001619YS02001622        0.44      0.44      0.44      0.53         0.41
  YS02001622YS02001625        0.44      0.44      0.59      0.01         0.01
  YS02001625YS02001629        0.41      0.41      0.59      0.01         0.01
  YS02001629YS02163301        0.59      0.59      0.59      0.06         0.11
  YS02001633YS02163601        0.61      0.61      0.64      0.24         0.24
  YS02001641YS02001644        0.52      0.55      0.52      1.13         0.51
  YS02001644YS02001647        0.36      0.36      0.52      0.01         0.01
  YS02001647YS02001649        0.36      0.36      0.46      0.01         0.01
  YS02001649YS02001757        0.45      0.46      0.51      0.05         0.03
  YS02001652YS02001649        0.33      0.33      0.46      0.01         0.01
  YS02001655YS02001652        0.22      0.22      0.31      0.01         0.01
  YS02001658YS02001655        0.11      0.11      0.22      0.01         0.01
  YS02001661YS02001658        0.01      0.01      0.11      0.01         0.01
  YS02001664YS02001661        0.01      0.01      0.01      0.01         0.01
  YS02001745YS02001748        0.01      0.01      0.06      0.01         0.01
  YS02001748YS02001751        0.09      0.09      0.15      0.01         0.01
  YS02001751YS02001754        0.15      0.15      0.25      0.01         0.01
  YS02001754YS02001757        0.28      0.28      0.51      0.01         0.01
  YS02001757CaochengTiaoxuchi        0.51      0.51      5.78      0.19         0.19
  YS02001759YS02001757        0.43      0.43      0.51      0.01         0.01
  YS02001762YS02001759        0.40      0.40      0.43      0.01         0.01
  YS02001765YS02001762        0.37      0.37      0.40      0.01         0.01
  YS02001767YS02001765        0.35      0.35      0.37      0.01         0.02
  YS02001770YS02001767        0.34      0.34      0.35      0.28         0.22
  YS02001774YS02001770        0.33      0.33      0.39      0.01         0.01
  YS02001779YS02001774        0.25      0.25      0.39      0.01         0.01
  YS02001783YS02001784        0.41      0.42      0.42      0.43         0.35
  YS02001784YS02001785        0.38      0.42      0.38      0.64         0.38
  YS02001786YS02001788        0.17      0.38      0.17      0.55         0.17
  YS02001788YS02001790        0.17      0.17      0.43      0.01         0.01
  YS02001790YS02001791        0.43      0.43      0.48      0.22         0.01
  YS02001791YS02001793        0.48      0.48      0.61      0.01         0.01
  YS02001793JiankangQianchi        0.57      0.57      7.70      0.01         0.01
  YS02001882YS02001884        0.30      0.30      0.31      0.01         0.01
  YS02001884YS02001887        0.33      0.33      0.34      0.01         0.01
  YS02001887YS02001890        0.35      0.35      0.36      0.01         0.01
  YS02001890YS02001895        0.28      0.28      0.38      0.01         0.01
  YS02001895YS02001898        0.28      0.28      0.28      0.01         0.01
  YS02001898YS02001901        0.29      0.29      0.32      0.01         0.01
  YS02001901YS02001904        0.32      0.32      0.32      0.01         0.01
  YS02001904YS02001907        0.32      0.32      0.54      0.01         0.01
  YS02001907YS02006553        0.64      0.64      0.69      0.01         0.01
  YS02001910YS02001907        0.37      0.37      0.53      0.01         0.01
  YS02001915YS02001910        0.29      0.29      0.37      0.01         0.01
  YS02001918YS02001915        0.20      0.20      0.29      0.01         0.01
  YS02001920YS02001918        0.20      0.20      0.21      0.01         0.01
  YS02001923YS02001920        0.17      0.17      0.21      0.01         0.01
  YS02001926YS02001923        0.01      0.01      0.01      0.01         0.01
  YS02001929YS02001926        0.01      0.01      0.01      0.01         0.01
  YS02006553YS02006556        0.45      0.45      0.54      0.01         0.01
  YS02006556YS02006558        0.49      0.49      0.55      0.01         0.01
  YS02006558YS02006561        0.30      0.44      0.30      0.61         0.30
  YS02006561YS02001783        0.18      0.18      0.42      0.01         0.01
  YS02163301YS02001633        0.59      0.59      0.63      0.01         0.01
  YS02163601YS02164001        0.56      0.56      0.64      0.06         0.01
  YS02164001YS02001641        0.55      0.56      0.55      0.52         0.44
  YSB1154YSB6556              0.52      0.52      0.64      0.01         0.01
  YSB1171HS02004479           0.43      0.43      0.64      0.01         0.01
  YSB1174YSB1171              0.58      0.58      0.84      0.01         0.01
  YSB6556YSB1171              0.52      0.52      0.98      0.01         0.01
  
  
  ***************
  Pumping Summary
  ***************
  
  ---------------------------------------------------------------------------------------------------------
                                                  Min       Avg       Max     Total     Power    % Time Off
                        Percent   Number of      Flow      Flow      Flow    Volume     Usage    Pump Curve
  Pump                 Utilized   Start-Ups       LPS       LPS       LPS  10^6 ltr     Kw-hr    Low   High
  ---------------------------------------------------------------------------------------------------------
  CC-R1                   13.73           5      0.00    683.00    683.00     2.700     50.54    0.0    7.6
  CC-R2                    9.35           2      0.00    683.00    683.00     1.840     34.74    0.0   11.1
  CC-S1                   95.53           5      0.00     51.19    200.00     0.988      6.13    0.0    0.0
  CC-S2                   94.79           6      0.00     60.80    200.00     1.005      6.02    0.0    0.0
  JK-R1                   14.50          10      0.00    302.57   1000.00     1.205     14.14    0.0    0.0
  JK-R2                   10.56           4      0.00    105.97   1000.00     0.367      3.86    0.0    0.0
  JK-S                    27.07          10      0.00     82.44    300.00     0.900      8.15    0.0    0.0
  XR-1                    97.91           2      0.00     95.00     95.00     2.679      9.62    0.0    0.0
  XR-2                    93.95           2      0.00     95.00     95.00     2.570      8.79    0.0    0.0
  XR-3                     0.00           1      0.00     95.00     95.00     0.000      0.00    0.0    0.0
  XR-4                     0.00           1      0.00     95.00     95.00     0.000      0.00    0.0    0.0
  

  Analysis begun on:  Sun Jun 25 21:03:10 2023
  Analysis ended on:  Sun Jun 25 21:03:22 2023
  Total elapsed time: 00:00:12