
  OWA STORM WATER MANAGEMENT MODEL - VERSION v5.1.14 (OWA 2022-07-31)
  --------------------------------------------------------------

  WARNING 04: minimum elevation drop used for Conduit WS02004404WS02004405
  WARNING 03: negative offset ignored for Link YS02001904YS02001907
  
  *********************************************************
  NOTE: The summary statistics displayed in this report are
  based on results found at every computational time step,  
  not just on results from each reporting time step.
  *********************************************************
  
  ****************
  Analysis Options
  ****************
  Flow Units ............... LPS
  Process Models:
    Rainfall/Runoff ........ YES
    RDII ................... NO
    Snowmelt ............... NO
    Groundwater ............ NO
    Flow Routing ........... YES
    Ponding Allowed ........ NO
    Water Quality .......... NO
  Infiltration Method ...... HORTON
  Flow Routing Method ...... DYNWAVE
  Surcharge Method ......... EXTRAN
  Starting Date ............ 08/28/2015 08:00:00
  Ending Date .............. 08/28/2015 16:00:00
  Antecedent Dry Days ...... 8.0
  Report Time Step ......... 00:01:00
  Wet Time Step ............ 00:01:00
  Dry Time Step ............ 00:01:00
  Routing Time Step ........ 30.00 sec
  Variable Time Step ....... YES
  Maximum Trials ........... 8
  Number of Threads ........ 2
  Head Tolerance ........... 0.001500 m
  
  
  **************************        Volume         Depth
  Runoff Quantity Continuity     hectare-m            mm
  **************************     ---------       -------
  Initial LID Storage ......         0.072         1.184
  Total Precipitation ......         2.446        40.385
  Evaporation Loss .........         0.000         0.000
  Infiltration Loss ........         0.190         3.135
  Surface Runoff ...........         1.797        29.659
  Final Storage ............         0.533         8.793
  Continuity Error (%) .....        -0.041
  
  
  **************************        Volume        Volume
  Flow Routing Continuity        hectare-m      10^6 ltr
  **************************     ---------     ---------
  Dry Weather Inflow .......         0.630         6.296
  Wet Weather Inflow .......         1.797        17.967
  Groundwater Inflow .......         0.000         0.000
  RDII Inflow ..............         0.000         0.000
  External Inflow ..........         0.105         1.045
  External Outflow .........         1.900        19.002
  Flooding Loss ............         0.431         4.305
  Evaporation Loss .........         0.000         0.000
  Exfiltration Loss ........         0.000         0.000
  Initial Stored Volume ....         0.303         3.031
  Final Stored Volume ......         0.508         5.082
  Continuity Error (%) .....        -0.177
  
  
  *************************
  Highest Continuity Errors
  *************************
  Node YS02001583 (-13.05%)
  Node YS02001884 (5.03%)
  Node YS02001774 (2.88%)
  Node HS02004842 (1.93%)
  Node HS02004817 (1.60%)
  
  
  ***************************
  Time-Step Critical Elements
  ***************************
  Link WS02006252WS02006251 (68.54%)
  Link WS02006280WS02006229 (13.84%)
  Link WS02006238WS02006235 (6.60%)
  Link YS02001791YS02001793 (1.78%)
  Link YS02006556YS02006558 (1.07%)
  
  
  ********************************
  Highest Flow Instability Indexes
  ********************************
  Link WS02006113WS02006111 (19)
  Link WS02004404WS02004405 (12)
  Link WS02006256WS02006235 (12)
  Link WS02006111WS02006112 (12)
  Link WS02006238WS02006235 (12)
  
  
  *************************
  Routing Time Step Summary
  *************************
  Minimum Time Step           :     0.01 sec
  Average Time Step           :     1.88 sec
  Maximum Time Step           :     6.46 sec
  Percent in Steady State     :    -0.00
  Average Iterations per Step :     2.80
  Percent Not Converging      :     8.26
  
  
  ***************************
  Subcatchment Runoff Summary
  ***************************
  
  ------------------------------------------------------------------------------------------------------------------------------
                            Total      Total      Total      Total     Imperv       Perv      Total       Total     Peak  Runoff
                           Precip      Runon       Evap      Infil     Runoff     Runoff     Runoff      Runoff   Runoff   Coeff
  Subcatchment                 mm         mm         mm         mm         mm         mm         mm    10^6 ltr      LPS
  ------------------------------------------------------------------------------------------------------------------------------
  sub0                      40.39       0.00       0.00       0.97      36.30       1.86      38.16        0.03    20.27   0.945
  sub1                      40.39       0.00       0.00       1.44      31.10       2.54      33.64        0.22   116.26   0.833
  sub10                     40.39       0.00       0.00       0.93      29.15       1.70      30.85        0.34   187.55   0.764
  sub11                     40.39       0.00       0.00       0.85      27.10       1.59      28.68        0.33   198.83   0.710
  sub12                     40.39       0.00       0.00       1.49      27.55       2.77      30.32        0.27   168.96   0.751
  sub14                     40.39       0.00       0.00       0.92      25.66       1.70      27.37        0.26   151.68   0.678
  sub15                     40.39       0.00       0.00       4.08      23.07       6.16      29.23        0.50   245.53   0.724
  sub16                     40.39       0.00       0.00       4.36      22.50       7.11      29.62        0.31   166.76   0.733
  sub17                     40.39       0.00       0.00       4.66      24.84       7.44      32.28        0.28   145.21   0.799
  sub2                      40.39       0.00       0.00       6.31      22.73       7.52      30.25        0.28   113.03   0.749
  sub22                     40.39       0.00       0.00       7.15      21.53       9.66      31.20        1.97   876.24   0.773
  sub23                     40.39       0.00       0.00       5.42      22.18       8.06      30.24        1.44   701.50   0.749
  sub3                      40.39       0.00       0.00       6.70      22.50       7.01      29.51        0.66   240.07   0.731
  sub4                      40.39       0.00       0.00       1.55      30.59       2.38      32.97        0.69   265.22   0.817
  sub5                      40.39       0.00       0.00       0.83      30.09       1.52      31.61        0.36   192.30   0.783
  sub60                     40.39       0.00       0.00       1.32      26.50       2.42      28.92        0.38   226.81   0.716
  sub61                     40.39       0.00       0.00       2.02      26.48       3.59      30.07        0.55   323.61   0.745
  sub62                     40.39       0.00       0.00       0.90      28.22       1.64      29.86        0.82   447.15   0.739
  sub63                     40.39       0.00       0.00       3.65      22.68       5.94      28.61        0.65   346.32   0.709
  sub64                     40.39       0.00       0.00       1.76      25.81       2.96      28.77        0.69   349.88   0.712
  sub65                     40.39       0.00       0.00       1.62      27.86       2.70      30.56        0.84   405.26   0.757
  sub66                     40.39       0.00       0.00       4.17      21.91       5.12      27.03        1.26   494.75   0.669
  sub67                     40.39       0.00       0.00       0.90      28.94       1.71      30.65        0.57   362.27   0.759
  sub68                     40.39       0.00       0.00       1.55      25.56       2.76      28.31        0.78   441.62   0.701
  sub69                     40.39       0.00       0.00       1.38      27.13       3.42      30.55        1.13   540.46   0.757
  sub7                      40.39       0.00       0.00       0.98      27.51       1.83      29.34        0.10    60.23   0.726
  sub70                     40.39       0.00       0.00       4.47      21.72       6.77      28.48        0.82   291.68   0.705
  sub71                     40.39       0.00       0.00       0.83      25.63       1.48      27.12        0.71   361.15   0.671
  sub72                     40.39       0.00       0.00       0.79      27.67       1.38      29.05        0.40   180.75   0.719
  sub8                      40.39       0.00       0.00       0.96      26.73       1.78      28.51        0.18   106.92   0.706
  sub9                      40.39       0.00       0.00       0.93      25.91       1.72      27.63        0.13    77.83   0.684
  

  ***********************
  LID Performance Summary
  ***********************

  --------------------------------------------------------------------------------------------------------------------
                                         Total      Evap     Infil   Surface    Drain    Initial     Final  Continuity
                                        Inflow      Loss      Loss   Outflow   Outflow   Storage   Storage       Error
  Subcatchment      LID Control             mm        mm        mm        mm        mm        mm        mm           %
  --------------------------------------------------------------------------------------------------------------------
  sub1              GreenRoof            40.39      0.00      0.00      0.00      0.00      7.05     47.49       -0.11
  sub10             GreenRoof            40.39      0.00      0.00      0.00      0.00      7.05     47.49       -0.11
  sub11             GreenRoof            40.39      0.00      0.00      0.00      0.00      7.05     47.49       -0.11
  sub12             GreenRoof            40.39      0.00      0.00      0.00      0.00      7.05     47.49       -0.11
  sub14             GreenRoof            40.39      0.00      0.00      0.00      0.00      7.05     47.49       -0.11
  sub15             GreenRoof            40.39      0.00      0.00      0.00      0.00      7.05     47.49       -0.11
  sub16             GreenRoof            40.39      0.00      0.00      0.00      0.00      7.05     47.49       -0.11
  sub17             GreenRoof            40.39      0.00      0.00      0.00      0.00      7.05     47.49       -0.11
  sub2              GreenRoof            40.39      0.00      0.00      0.00      0.00      7.05     47.49       -0.11
  sub22             GreenRoof            40.39      0.00      0.00      0.00      0.00      7.05     47.49       -0.11
  sub23             GreenRoof            40.39      0.00      0.00      0.00      0.00      7.05     47.49       -0.11
  sub3              GreenRoof            40.39      0.00      0.00      0.00      0.00      7.05     47.49       -0.11
  sub4              GreenRoof            40.39      0.00      0.00      0.00      0.00      7.05     47.49       -0.11
  sub5              GreenRoof            40.39      0.00      0.00      0.00      0.00      7.05     47.49       -0.11
  sub60             GreenRoof            40.39      0.00      0.00      0.00      0.00      7.05     47.49       -0.11
  sub61             GreenRoof            40.39      0.00      0.00      0.00      0.00      7.05     47.49       -0.11
  sub62             GreenRoof            40.39      0.00      0.00      0.00      0.00      7.05     47.49       -0.11
  sub63             GreenRoof            40.39      0.00      0.00      0.00      0.00      7.05     47.49       -0.11
  sub64             GreenRoof            40.39      0.00      0.00      0.00      0.00      7.05     47.49       -0.11
  sub65             GreenRoof            40.39      0.00      0.00      0.00      0.00      7.05     47.49       -0.11
  sub66             GreenRoof            40.39      0.00      0.00      0.00      0.00      7.05     47.49       -0.11
  sub67             GreenRoof            40.39      0.00      0.00      0.00      0.00      7.05     47.49       -0.11
  sub68             GreenRoof            40.39      0.00      0.00      0.00      0.00      7.05     47.49       -0.11
  sub69             GreenRoof            40.39      0.00      0.00      0.00      0.00      7.05     47.49       -0.11
  sub7              GreenRoof            40.39      0.00      0.00      0.00      0.00      7.05     47.49       -0.11
  sub70             GreenRoof            40.39      0.00      0.00      0.00      0.00      7.05     47.49       -0.11
  sub71             GreenRoof            40.39      0.00      0.00      0.00      0.00      7.05     47.49       -0.11
  sub72             GreenRoof            40.39      0.00      0.00      0.00      0.00      7.05     47.49       -0.11
  sub8              GreenRoof            40.39      0.00      0.00      0.00      0.00      7.05     47.49       -0.11
  sub9              GreenRoof            40.39      0.00      0.00      0.00      0.00      7.05     47.49       -0.11
  
  ******************
  Node Depth Summary
  ******************
  
  ---------------------------------------------------------------------------------
                                 Average  Maximum  Maximum  Time of Max    Reported
                                   Depth    Depth      HGL   Occurrence   Max Depth
  Node                 Type       Meters   Meters   Meters  days hr:min      Meters
  ---------------------------------------------------------------------------------
  HS02004478           JUNCTION     0.15     1.55    10.78     0  01:38        1.31
  HS02004479           JUNCTION     0.23     1.77    10.97     0  01:38        1.54
  HS02004480           JUNCTION     0.19     1.73    10.97     0  01:38        1.50
  HS02004770           JUNCTION     0.21     1.42    11.25     0  01:38        1.42
  HS02004777           JUNCTION     0.24     1.48    11.28     0  01:38        1.44
  HS02004785           JUNCTION     0.13     1.49    11.39     0  01:38        1.32
  HS02004788           JUNCTION     0.10     1.42    11.32     0  01:38        1.29
  HS02004792           JUNCTION     0.14     1.60    11.12     0  01:37        1.60
  HS02004799           JUNCTION     0.25     1.76    10.97     0  01:38        1.68
  HS02004802           JUNCTION     0.25     1.67    10.80     0  01:42        1.38
  HS02004807           JUNCTION     0.22     1.68    10.85     0  01:42        1.31
  HS02004817           JUNCTION     0.52     2.06    10.91     0  01:42        1.63
  HS02004824           JUNCTION     0.09     1.60    11.01     0  01:42        1.11
  HS02004830           JUNCTION     0.10     1.60    11.07     0  01:42        1.06
  HS02004837           JUNCTION     0.08     1.54    11.12     0  01:42        0.93
  HS02004842           JUNCTION     0.37     1.87    11.14     0  01:42        1.19
  HS02004848           JUNCTION     0.06     1.54    11.14     0  01:42        0.85
  HS02004852           JUNCTION     0.06     1.59    11.10     0  01:42        0.93
  HS02004856           JUNCTION     0.12     1.72    11.14     0  01:42        1.00
  HS02004862           JUNCTION     0.07     1.68    11.06     0  01:42        1.00
  HS02004870           JUNCTION     0.07     1.71    10.99     0  01:42        1.03
  HS02004876           JUNCTION     0.11     1.84    10.87     0  01:42        1.20
  HS02004881           JUNCTION     0.05     1.66    10.69     0  01:42        1.09
  HS02004901           JUNCTION     0.22     1.42    11.24     0  01:38        1.42
  WS02001211           JUNCTION     0.63     0.86     5.69     0  01:45        0.86
  WS02001212           JUNCTION     0.37     0.63     5.69     0  01:45        0.60
  WS02001213           JUNCTION     0.58     0.95     5.71     0  01:44        0.94
  WS02003059           JUNCTION     0.65     0.96     5.65     0  01:47        0.93
  WS02003060           JUNCTION     0.36     0.68     5.61     0  01:47        0.68
  WS02003066           JUNCTION     0.21     0.45     6.01     0  01:39        0.45
  WS02003067           JUNCTION     0.50     0.94     6.26     0  01:39        0.92
  WS02003069           JUNCTION     0.40     0.77     5.35     0  01:48        0.76
  WS02003072           JUNCTION     0.46     0.80     5.18     0  01:47        0.80
  WS02003073           JUNCTION     0.28     0.51     4.57     0  01:48        0.51
  WS02004138           JUNCTION     0.13     0.14     7.39     0  00:32        0.14
  WS02004139           JUNCTION     0.57     0.77     5.68     0  01:43        0.75
  WS02004401           JUNCTION     0.68     2.25     8.25     0  01:37        1.81
  WS02004402           JUNCTION     0.71     2.22     8.18     0  01:37        1.76
  WS02004403           JUNCTION     0.72     2.11     8.04     0  01:37        1.67
  WS02004404           JUNCTION     0.78     2.12     7.97     0  01:37        1.66
  WS02004405           JUNCTION     0.78     2.02     7.87     0  01:37        1.59
  WS02004406           JUNCTION     0.77     1.88     7.71     0  01:37        1.48
  WS02004407           JUNCTION     0.21     0.84     7.15     0  01:41        0.84
  WS02004409           JUNCTION     0.45     1.33     7.10     0  01:41        1.32
  WS02004410           JUNCTION     0.47     1.27     6.99     0  01:39        1.24
  WS02004411           JUNCTION     0.48     1.20     6.88     0  01:39        1.16
  WS02004412           JUNCTION     0.49     1.19     6.83     0  01:39        1.07
  WS02004413           JUNCTION     0.64     1.68     7.15     0  01:39        1.13
  WS02006109           JUNCTION     0.83     2.64     9.26     0  01:37        2.64
  WS02006110           JUNCTION     0.79     2.76     9.34     0  01:37        2.34
  WS02006111           JUNCTION     0.33     2.68     9.39     0  01:37        1.59
  WS02006112           JUNCTION     0.87     2.68     8.56     0  01:37        2.19
  WS02006113           JUNCTION     0.39     2.68     9.57     0  01:37        1.73
  WS02006115           JUNCTION     0.59     2.23     8.37     0  01:37        1.85
  WS02006116           JUNCTION     0.67     2.30     8.34     0  01:37        1.88
  WS02006228           JUNCTION     0.86     3.03     9.68     0  01:37        2.96
  WS02006229           JUNCTION     0.85     3.25     9.94     0  01:37        3.12
  WS02006230           JUNCTION     0.80     2.65     9.39     0  01:37        2.65
  WS02006231           JUNCTION     0.55     2.21     9.34     0  01:37        2.20
  WS02006232           JUNCTION     0.64     2.18     9.22     0  01:37        2.18
  WS02006234           JUNCTION     0.53     1.96     9.12     0  01:37        1.96
  WS02006235           JUNCTION     0.54     2.00     9.16     0  01:36        2.00
  WS02006238           JUNCTION     0.56     2.02     9.17     0  01:37        2.01
  WS02006239           JUNCTION     0.51     2.03     9.24     0  01:36        1.78
  WS02006240           JUNCTION     0.47     1.83     9.12     0  01:36        1.63
  WS02006242           JUNCTION     0.51     1.55     8.82     0  01:36        1.55
  WS02006243           JUNCTION     0.42     1.48     8.90     0  01:36        1.38
  WS02006245           JUNCTION     0.41     1.56     9.04     0  01:37        1.29
  WS02006247           JUNCTION     0.42     1.47     8.97     0  01:37        1.23
  WS02006248           JUNCTION     0.38     1.10     8.69     0  01:37        1.10
  WS02006249           JUNCTION     0.40     1.09     8.69     0  01:37        1.09
  WS02006251           JUNCTION     0.44     2.16     9.83     0  01:42        2.03
  WS02006252           JUNCTION     0.31     1.50     9.74     0  00:00        1.50
  WS02006253           JUNCTION     0.48     2.91    10.56     0  01:42        2.43
  WS02006256           JUNCTION     0.82     2.35     9.28     0  00:00        2.35
  WS02006280           JUNCTION     0.20     1.83    10.10     0  01:37        1.61
  WS02006284           JUNCTION     0.48     2.08    10.48     0  01:37        1.76
  WS02006287           JUNCTION     0.21     1.73    10.68     0  01:38        1.48
  WSF200               JUNCTION     0.19     0.55     5.78     0  01:40        0.55
  YS02001580           JUNCTION     0.04     1.05     9.59     0  01:39        0.70
  YS02001583           JUNCTION     0.07     1.14     9.64     0  01:39        0.75
  YS02001586           JUNCTION     0.12     1.13     9.30     0  01:39        1.08
  YS02001590           JUNCTION     0.20     1.40     9.26     0  01:39        1.33
  YS02001593           JUNCTION     0.14     1.39     9.25     0  01:37        1.26
  YS02001596           JUNCTION     0.19     1.76     9.18     0  01:37        1.62
  YS02001600           JUNCTION     0.24     1.87     9.00     0  01:37        1.85
  YS02001601           JUNCTION     0.42     2.06     8.90     0  01:37        2.06
  YS02001602           JUNCTION     0.34     1.87     8.77     0  01:39        1.87
  YS02001605           JUNCTION     0.32     1.78     8.68     0  01:46        1.77
  YS02001607           JUNCTION     0.32     1.68     8.53     0  01:39        1.62
  YS02001610           JUNCTION     0.37     1.68     8.48     0  01:39        1.66
  YS02001613           JUNCTION     0.33     1.70     8.54     0  01:39        1.62
  YS02001616           JUNCTION     0.26     1.61     8.52     0  01:39        1.56
  YS02001619           JUNCTION     0.24     1.61     8.54     0  01:39        1.53
  YS02001622           JUNCTION     0.23     1.60     8.51     0  01:39        1.51
  YS02001625           JUNCTION     0.49     1.78     8.38     0  01:39        1.74
  YS02001629           JUNCTION     0.33     1.85     8.40     0  01:39        1.72
  YS02001633           JUNCTION     0.41     1.86     8.31     0  01:39        1.80
  YS02001641           JUNCTION     0.40     1.63     8.06     0  01:46        1.58
  YS02001644           JUNCTION     0.40     1.56     7.99     0  01:46        1.48
  YS02001647           JUNCTION     0.19     1.25     7.86     0  01:46        1.13
  YS02001649           JUNCTION     0.31     1.31     7.70     0  01:46        1.23
  YS02001652           JUNCTION     0.13     1.20     7.79     0  01:46        1.03
  YS02001655           JUNCTION     0.09     0.82     7.67     0  01:47        0.78
  YS02001658           JUNCTION     0.05     0.51     7.65     0  01:48        0.47
  YS02001661           JUNCTION     0.11     0.32     7.72     0  01:40        0.32
  YS02001664           JUNCTION     0.04     0.22     8.15     0  01:40        0.22
  YS02001745           JUNCTION     0.03     0.20     7.72     0  01:39        0.20
  YS02001748           JUNCTION     0.05     0.43     7.50     0  01:46        0.42
  YS02001751           JUNCTION     0.07     0.64     7.52     0  01:46        0.62
  YS02001754           JUNCTION     0.11     0.93     7.53     0  01:48        0.91
  YS02001757           JUNCTION     0.41     1.27     7.53     0  01:46        1.24
  YS02001759           JUNCTION     0.32     1.17     7.53     0  01:46        1.14
  YS02001762           JUNCTION     0.29     1.13     7.53     0  01:47        1.11
  YS02001765           JUNCTION     0.25     1.08     7.53     0  01:45        1.06
  YS02001767           JUNCTION     0.22     1.05     7.54     0  01:47        1.02
  YS02001770           JUNCTION     0.22     1.04     7.54     0  01:48        1.02
  YS02001774           JUNCTION     0.28     1.11     7.53     0  01:48        1.10
  YS02001779           JUNCTION     0.08     0.85     7.53     0  01:48        0.84
  YS02001783           JUNCTION     0.17     1.11     7.25     0  01:46        1.10
  YS02001784           JUNCTION     0.19     1.02     7.09     0  01:46        1.02
  YS02001786           JUNCTION     0.17     0.82     6.85     0  01:44        0.81
  YS02001788           JUNCTION     0.12     0.59     6.57     0  01:45        0.59
  YS02001790           JUNCTION     0.14     0.68     6.33     0  01:46        0.68
  YS02001791           JUNCTION     0.09     0.41     5.88     0  01:46        0.39
  YS02001793           JUNCTION     0.05     0.26     5.10     0  01:45        0.25
  YS02001882           JUNCTION     0.21     1.39     8.11     0  01:46        1.33
  YS02001884           JUNCTION     0.30     1.49     8.11     0  01:46        1.42
  YS02001887           JUNCTION     0.38     1.57     8.10     0  01:46        1.51
  YS02001890           JUNCTION     0.41     1.59     8.10     0  01:46        1.54
  YS02001895           JUNCTION     0.19     1.34     8.09     0  01:46        1.30
  YS02001898           JUNCTION     0.19     1.34     8.08     0  01:46        1.32
  YS02001901           JUNCTION     0.30     1.46     8.07     0  01:46        1.42
  YS02001904           JUNCTION     0.29     1.42     8.05     0  01:46        1.40
  YS02001907           JUNCTION     0.60     1.75     8.04     0  01:46        1.73
  YS02001910           JUNCTION     0.40     1.54     8.05     0  01:46        1.53
  YS02001915           JUNCTION     0.21     1.35     8.06     0  01:45        1.33
  YS02001918           JUNCTION     0.09     1.00     8.07     0  01:45        0.99
  YS02001920           JUNCTION     0.17     1.10     8.11     0  01:43        1.03
  YS02001923           JUNCTION     0.06     0.83     8.09     0  01:45        0.79
  YS02001926           JUNCTION     0.10     0.64     8.09     0  01:45        0.64
  YS02001929           JUNCTION     0.04     0.38     8.07     0  01:45        0.36
  YS02006553           JUNCTION     0.61     1.72     8.01     0  01:46        1.71
  YS02006556           JUNCTION     0.58     1.67     7.98     0  01:46        1.64
  YS02006558           JUNCTION     0.62     1.69     7.96     0  01:46        1.68
  YS02006561           JUNCTION     0.10     0.69     7.35     0  01:46        0.68
  YS02163301           JUNCTION     0.36     1.89     8.41     0  01:39        1.75
  YS02163601           JUNCTION     0.45     1.79     8.18     0  01:46        1.75
  YS02164001           JUNCTION     0.38     1.66     8.11     0  01:46        1.62
  YSB1154              JUNCTION     0.36     1.98    11.04     0  01:38        1.73
  YSB1171              JUNCTION     0.51     1.95    10.85     0  01:38        1.86
  YSB1174              JUNCTION     0.31     1.85    10.96     0  01:38        1.66
  YSB6556              JUNCTION     0.26     1.80    10.97     0  01:38        1.61
  CC-1                 OUTFALL      0.00     0.00     0.00     0  00:00        0.00
  CC-2                 OUTFALL      0.00     0.00     0.00     0  00:00        0.00
  JK-1                 OUTFALL      0.00     0.00     0.00     0  00:00        0.00
  JK-2                 OUTFALL      0.00     0.00     0.00     0  00:00        0.00
  WSC                  OUTFALL      0.28     0.51     1.18     0  01:48        0.51
  CC-storage           STORAGE      1.08     1.43     6.93     0  02:04        1.43
  JK-storage           STORAGE      2.93     4.30     5.10     0  01:45        4.26
  XR-storage           STORAGE      7.96     9.26     7.26     0  08:00        9.26
  
  
  *******************
  Node Inflow Summary
  *******************
  
  -------------------------------------------------------------------------------------------------
                                  Maximum  Maximum                  Lateral       Total        Flow
                                  Lateral    Total  Time of Max      Inflow      Inflow     Balance
                                   Inflow   Inflow   Occurrence      Volume      Volume       Error
  Node                 Type           LPS      LPS  days hr:min    10^6 ltr    10^6 ltr     Percent
  -------------------------------------------------------------------------------------------------
  HS02004478           JUNCTION      0.00  2171.92     0  01:38           0        6.16      -0.025
  HS02004479           JUNCTION      0.00   372.98     0  01:38           0       0.632       0.130
  HS02004480           JUNCTION      0.00  2152.74     0  01:38           0        4.97       0.044
  HS02004770           JUNCTION    701.50   825.63     0  01:38        1.44        1.67       0.180
  HS02004777           JUNCTION      0.03   846.05     0  01:38    0.000864        1.57       0.332
  HS02004785           JUNCTION      0.15   852.45     0  01:38     0.00432        1.57       0.047
  HS02004788           JUNCTION    247.20   973.69     0  01:38       0.551        2.12      -0.042
  HS02004792           JUNCTION    876.52  1639.62     0  01:39        1.98         4.1       0.016
  HS02004799           JUNCTION    151.68  1790.63     0  01:39       0.261        4.35       0.061
  HS02004802           JUNCTION      0.00   320.16     0  02:04           0        1.24       0.321
  HS02004807           JUNCTION    198.83   498.28     0  01:39       0.333         1.3       0.316
  HS02004817           JUNCTION      0.60   498.44     0  01:38      0.0173        1.04       1.626
  HS02004824           JUNCTION    265.27   716.14     0  01:38       0.689        1.25       0.055
  HS02004830           JUNCTION      0.15   707.19     0  01:38     0.00432       0.788       0.180
  HS02004837           JUNCTION    193.90   928.46     0  01:39       0.523       0.989       0.074
  HS02004842           JUNCTION      0.00   848.51     0  01:39           0       0.671       1.965
  HS02004848           JUNCTION    240.07  1064.93     0  01:39       0.664        1.17       0.027
  HS02004852           JUNCTION      0.00  1025.20     0  01:40           0        1.02      -0.009
  HS02004856           JUNCTION     77.83  1040.53     0  01:40       0.133        1.16       0.145
  HS02004862           JUNCTION    113.23  1147.42     0  01:41       0.288        1.44       0.005
  HS02004870           JUNCTION    106.92  1261.93     0  01:41       0.182        1.62       0.018
  HS02004876           JUNCTION    116.26  1400.40     0  01:41       0.224        1.85       0.032
  HS02004881           JUNCTION     60.23  1368.09     0  01:41      0.0989        1.95       0.005
  HS02004901           JUNCTION    166.76   361.88     0  01:43        0.31       0.365       0.501
  WS02001211           JUNCTION      7.35   355.57     0  01:43       0.212        5.45       0.608
  WS02001212           JUNCTION      0.00   425.64     0  01:41           0        5.42       0.289
  WS02001213           JUNCTION      0.00   366.36     0  01:41           0        5.42       0.323
  WS02003059           JUNCTION      0.00   440.05     0  01:40           0        5.42       0.591
  WS02003060           JUNCTION     16.53  1512.52     0  01:47       0.476        12.8       0.120
  WS02003066           JUNCTION      0.00  1258.00     0  01:41           0        6.93       0.027
  WS02003067           JUNCTION      0.00  1245.45     0  01:42           0        6.94       0.071
  WS02003069           JUNCTION      0.32  1474.64     0  01:48     0.00922        12.7       0.125
  WS02003072           JUNCTION      0.00  1466.35     0  01:48           0        12.7       0.166
  WS02003073           JUNCTION      1.82  1470.85     0  01:47      0.0524        12.8       0.170
  WS02004138           JUNCTION      0.00   380.00     0  00:00           0        5.25       0.054
  WS02004139           JUNCTION      0.32   302.43     0  01:42     0.00924        5.26       0.509
  WS02004401           JUNCTION      0.00  1280.16     0  01:39           0        7.07       0.182
  WS02004402           JUNCTION      0.00  1280.73     0  01:39           0        7.05       0.179
  WS02004403           JUNCTION      0.00  1281.31     0  01:39           0        7.04       0.169
  WS02004404           JUNCTION      0.16  1282.73     0  01:39     0.00467        7.03       0.139
  WS02004405           JUNCTION      0.04  1284.98     0  01:39      0.0011        7.02       0.207
  WS02004406           JUNCTION      0.00  1285.48     0  01:39           0        7.01       0.337
  WS02004407           JUNCTION      0.00  1285.64     0  01:39           0        6.99       0.042
  WS02004409           JUNCTION      0.00  1326.45     0  01:38           0        6.98       0.075
  WS02004410           JUNCTION      0.00  1294.02     0  01:38           0        6.98       0.091
  WS02004411           JUNCTION      0.00  1251.73     0  01:38           0        6.97       0.107
  WS02004412           JUNCTION      0.00  1245.03     0  01:42           0        6.96       0.133
  WS02004413           JUNCTION      0.00  1245.03     0  01:42           0        6.95       0.225
  WS02006109           JUNCTION      1.23  1212.30     0  01:37      0.0354        6.87       0.172
  WS02006110           JUNCTION      0.00  1211.70     0  01:37           0        6.84       0.147
  WS02006111           JUNCTION      0.00  1239.90     0  01:37           0        6.83       0.010
  WS02006112           JUNCTION    145.21  1278.18     0  01:39       0.277         7.1       0.285
  WS02006113           JUNCTION      0.00  1211.63     0  01:37           0        6.83       0.061
  WS02006115           JUNCTION      0.00  1278.16     0  01:39           0        7.08       0.132
  WS02006116           JUNCTION      0.00  1279.47     0  01:39           0        7.07       0.072
  WS02006228           JUNCTION      0.00  1212.62     0  01:37           0        6.84       0.088
  WS02006229           JUNCTION      0.00  2070.99     0  01:43           0        8.14       0.106
  WS02006230           JUNCTION     10.28   912.35     0  01:43       0.296        3.34       0.296
  WS02006231           JUNCTION      0.00   453.30     0  01:42           0        2.66      -0.094
  WS02006232           JUNCTION      0.00   453.36     0  01:45           0        2.64       0.360
  WS02006234           JUNCTION      0.00   453.07     0  01:45           0        2.61      -0.208
  WS02006235           JUNCTION      0.00   472.20     0  03:20           0         2.6       0.269
  WS02006238           JUNCTION      0.00   407.22     0  01:59           0        2.37      -0.282
  WS02006239           JUNCTION      0.00   401.37     0  01:59           0        2.34      -0.195
  WS02006240           JUNCTION      0.00   401.04     0  02:02           0        2.31       0.028
  WS02006242           JUNCTION      0.00   437.89     0  01:36           0        2.29       0.072
  WS02006243           JUNCTION      0.00   566.77     0  01:36           0        2.07      -0.051
  WS02006245           JUNCTION      0.00   414.97     0  01:37           0        2.08       0.635
  WS02006247           JUNCTION      0.00   606.77     0  01:37           0        2.07       0.089
  WS02006248           JUNCTION      0.00   636.47     0  01:37           0        2.17      -0.139
  WS02006249           JUNCTION      0.00  1308.24     0  01:44           0        3.86       0.294
  WS02006251           JUNCTION      0.08  1292.89     0  01:44     0.00222        3.87      -0.029
  WS02006252           JUNCTION      0.00   400.00     0  00:00           0        1.85      -0.037
  WS02006253           JUNCTION     20.27  1258.76     0  01:42      0.0309        2.01      -0.016
  WS02006256           JUNCTION      0.00   300.00     0  00:00           0       0.425      -1.026
  WS02006280           JUNCTION      0.00  2069.79     0  01:43           0        6.13      -0.029
  WS02006284           JUNCTION      0.10  2068.86     0  01:43     0.00275        6.13       0.010
  WS02006287           JUNCTION      0.00  2065.77     0  01:43           0        6.13       0.061
  WSF200               JUNCTION      0.00  1254.01     0  01:42           0        6.93       0.016
  YS02001580           JUNCTION      0.00   136.95     0  01:38           0     0.00431       0.408
  YS02001583           JUNCTION      0.00   218.02     0  01:39           0      0.0144     -11.541
  YS02001586           JUNCTION    291.68   292.00     0  01:43       0.823       0.835       0.211
  YS02001590           JUNCTION      0.00   292.18     0  01:43           0        0.82      -0.033
  YS02001593           JUNCTION      0.00   291.97     0  01:44           0       0.821       0.017
  YS02001596           JUNCTION      0.00   291.92     0  01:43           0        0.82      -0.016
  YS02001600           JUNCTION      0.00   291.97     0  01:43           0       0.821       0.003
  YS02001601           JUNCTION    540.46   825.54     0  01:41        1.13        1.95       0.042
  YS02001602           JUNCTION      0.00   583.85     0  01:39           0        1.67       0.020
  YS02001605           JUNCTION      0.00   583.74     0  01:39           0        1.66       0.020
  YS02001607           JUNCTION      0.00   583.70     0  01:38           0        1.66       0.108
  YS02001610           JUNCTION      0.00   561.67     0  01:38           0        1.65       0.133
  YS02001613           JUNCTION      0.00   525.46     0  01:39           0        1.65       0.107
  YS02001616           JUNCTION      0.00   487.74     0  01:39           0        1.65       0.021
  YS02001619           JUNCTION    494.75   947.03     0  01:39        1.26        2.91       0.001
  YS02001622           JUNCTION      0.00   953.07     0  01:39           0        2.91      -0.002
  YS02001625           JUNCTION      0.00   959.75     0  01:39           0        2.91       0.308
  YS02001629           JUNCTION      0.00   962.64     0  01:39           0         2.9       0.005
  YS02001633           JUNCTION    405.46  1313.26     0  01:41       0.847        3.75       0.091
  YS02001641           JUNCTION      0.00  1316.33     0  01:41           0        3.75       0.075
  YS02001644           JUNCTION    349.92  1666.63     0  01:41       0.692        4.44       0.073
  YS02001647           JUNCTION      0.00  1667.64     0  01:41           0        4.42       0.002
  YS02001649           JUNCTION      0.00  2068.89     0  01:41           0        5.08       0.098
  YS02001652           JUNCTION      0.00   442.26     0  01:41           0       0.652      -0.377
  YS02001655           JUNCTION      0.15   364.21     0  01:48     0.00443       0.654       0.272
  YS02001658           JUNCTION      0.00   345.96     0  01:40           0       0.649      -0.005
  YS02001661           JUNCTION      0.00   346.21     0  01:40           0        0.65       0.043
  YS02001664           JUNCTION    346.32   346.32     0  01:40        0.65        0.65      -0.007
  YS02001745           JUNCTION    226.81   226.81     0  01:39        0.38        0.38       0.194
  YS02001748           JUNCTION      0.04   226.85     0  01:39      0.0013       0.381      -0.223
  YS02001751           JUNCTION      0.01   234.36     0  01:49    0.000317       0.382       0.401
  YS02001754           JUNCTION      0.26   269.60     0  01:47     0.00749       0.388      -0.542
  YS02001757           JUNCTION      0.00  2721.18     0  01:42           0        6.86       0.468
  YS02001759           JUNCTION    323.65   649.87     0  01:42       0.553        1.42       0.263
  YS02001762           JUNCTION      0.00   386.18     0  01:43           0       0.864       0.317
  YS02001765           JUNCTION      0.00   427.82     0  01:43           0       0.862       0.234
  YS02001767           JUNCTION      0.54   411.93     0  01:43      0.0154       0.859       0.210
  YS02001770           JUNCTION    447.31   447.31     0  01:40       0.823       0.886       0.130
  YS02001774           JUNCTION      0.00   119.91     0  01:40           0      0.0817       2.966
  YS02001779           JUNCTION      0.01    66.76     0  01:40    0.000144      0.0264      -0.083
  YS02001783           JUNCTION      0.00  1078.42     0  01:43           0        2.51       0.010
  YS02001784           JUNCTION      1.06  1079.94     0  01:43      0.0305        2.54       0.019
  YS02001786           JUNCTION      0.06  1079.60     0  01:44     0.00162        2.54       0.025
  YS02001788           JUNCTION      0.07  1076.22     0  01:46     0.00204        2.54       0.012
  YS02001790           JUNCTION      0.15  1086.16     0  01:46     0.00446        2.55       0.024
  YS02001791           JUNCTION      0.00  1175.99     0  01:46           0        2.55      -0.006
  YS02001793           JUNCTION      0.00  1122.09     0  01:46           0        2.55       0.011
  YS02001882           JUNCTION      0.00    49.66     0  01:40           0      0.0124       4.713
  YS02001884           JUNCTION      0.00    86.91     0  01:40           0      0.0481       5.296
  YS02001887           JUNCTION    362.72   362.72     0  01:39       0.583       0.616       0.721
  YS02001890           JUNCTION      0.00   352.86     0  01:40           0       0.576       0.886
  YS02001895           JUNCTION      0.00   355.37     0  01:40           0       0.571       0.301
  YS02001898           JUNCTION      0.00   346.30     0  01:41           0       0.569       0.015
  YS02001901           JUNCTION      0.00   353.04     0  01:41           0       0.572       0.560
  YS02001904           JUNCTION      0.00   354.70     0  01:41           0       0.583       0.479
  YS02001907           JUNCTION      0.00   755.01     0  01:48           0        1.77       1.021
  YS02001910           JUNCTION      0.00   563.45     0  01:49           0        1.19       0.601
  YS02001915           JUNCTION    361.17   563.01     0  01:49        0.71         1.2       0.132
  YS02001918           JUNCTION      0.00   292.33     0  01:49           0       0.493       0.028
  YS02001920           JUNCTION      2.87   275.13     0  01:47      0.0827       0.487       0.177
  YS02001923           JUNCTION      0.04   251.03     0  01:46     0.00109       0.402      -0.068
  YS02001926           JUNCTION      0.05   222.51     0  01:45      0.0015       0.401       0.140
  YS02001929           JUNCTION    180.75   180.75     0  01:42       0.399       0.399      -0.007
  YS02006553           JUNCTION      0.00   755.68     0  01:48           0        1.76       0.674
  YS02006556           JUNCTION      0.00   755.31     0  01:48           0        1.77       0.459
  YS02006558           JUNCTION    442.50  1095.24     0  01:43       0.805        2.55       0.142
  YS02006561           JUNCTION      0.00  1095.33     0  01:43           0        2.51      -0.002
  YS02163301           JUNCTION      0.00   909.11     0  01:41           0         2.9       0.050
  YS02163601           JUNCTION      0.11  1314.31     0  01:41     0.00317        3.75       0.125
  YS02164001           JUNCTION      0.00  1314.51     0  01:41           0        3.74       0.061
  YSB1154              JUNCTION    192.30   192.30     0  01:40       0.358       0.359       0.398
  YSB1171              JUNCTION      0.00   366.69     0  01:38           0       0.631       1.005
  YSB1174              JUNCTION    168.96   168.96     0  01:39       0.265       0.266       0.467
  YSB6556              JUNCTION      0.00   192.69     0  01:40           0        0.36       0.312
  CC-1                 OUTFALL       0.00   683.00     0  00:00           0        3.14       0.000
  CC-2                 OUTFALL       0.00   683.00     0  00:00           0           1       0.000
  JK-1                 OUTFALL       0.00  1000.00     0  00:00           0        1.67       0.000
  JK-2                 OUTFALL       0.00  1000.00     0  00:00           0       0.453       0.000
  WSC                  OUTFALL       0.00  1470.22     0  01:48           0        12.7       0.000
  CC-storage           STORAGE       0.00  2538.48     0  01:42           0        9.04       0.057
  JK-storage           STORAGE       0.00  1121.42     0  01:46           0         2.7      -0.000
  XR-storage           STORAGE     200.00   200.00     0  00:00        5.76        6.36       0.001
  
  
  **********************
  Node Surcharge Summary
  **********************
  
  Surcharging occurs when water rises above the top of the highest conduit.
  ---------------------------------------------------------------------
                                               Max. Height   Min. Depth
                                   Hours       Above Crown    Below Rim
  Node                 Type      Surcharged         Meters       Meters
  ---------------------------------------------------------------------
  HS02004478           JUNCTION        0.22          0.632        0.308
  HS02004479           JUNCTION        0.35          0.966        0.084
  HS02004480           JUNCTION        0.38          1.020        0.080
  HS02004770           JUNCTION        0.31          0.720        0.000
  HS02004777           JUNCTION        0.31          0.780        0.000
  HS02004785           JUNCTION        0.26          0.790        0.000
  HS02004788           JUNCTION        0.24          0.720        0.000
  HS02004792           JUNCTION        0.36          0.900        0.000
  HS02004799           JUNCTION        0.45          1.060        0.000
  HS02004802           JUNCTION        0.38          0.958        0.252
  HS02004807           JUNCTION        0.36          0.981        0.239
  HS02004817           JUNCTION        0.85          1.361        0.379
  HS02004824           JUNCTION        0.24          0.903        0.407
  HS02004830           JUNCTION        0.20          0.905        0.425
  HS02004837           JUNCTION        0.16          0.844        0.496
  HS02004842           JUNCTION        0.29          1.169        0.351
  HS02004848           JUNCTION        0.09          0.837        0.533
  HS02004852           JUNCTION        0.12          0.890        0.530
  HS02004856           JUNCTION        0.11          0.947        0.353
  HS02004862           JUNCTION        0.15          0.977        0.323
  HS02004870           JUNCTION        0.17          1.005        0.395
  HS02004876           JUNCTION        0.23          1.145        0.415
  HS02004881           JUNCTION        0.21          0.958        0.492
  HS02004901           JUNCTION        0.32          0.720        0.000
  WS02004401           JUNCTION        1.35          1.249        0.411
  WS02004402           JUNCTION        1.37          1.215        0.525
  WS02004403           JUNCTION        1.37          1.108        0.922
  WS02004404           JUNCTION        1.49          1.118        1.662
  WS02004405           JUNCTION        1.47          1.019        1.781
  WS02004406           JUNCTION        1.44          0.876        1.574
  WS02004409           JUNCTION        0.61          0.330        2.030
  WS02004410           JUNCTION        0.59          0.274        2.266
  WS02004411           JUNCTION        0.52          0.196        2.334
  WS02004412           JUNCTION        0.43          0.190        2.120
  WS02004413           JUNCTION        0.93          0.683        1.517
  WS02006109           JUNCTION        1.74          1.820        0.000
  WS02006110           JUNCTION        1.56          1.850        0.000
  WS02006111           JUNCTION        0.82          1.870        0.000
  WS02006112           JUNCTION        1.60          1.680        0.000
  WS02006113           JUNCTION        0.88          1.877        0.053
  WS02006115           JUNCTION        1.17          1.219        1.031
  WS02006116           JUNCTION        1.18          1.241        1.049
  WS02006228           JUNCTION        1.74          2.200        0.000
  WS02006229           JUNCTION        0.58          1.070        0.000
  WS02006230           JUNCTION        1.46          1.570        0.000
  WS02006231           JUNCTION        1.49          1.504        0.026
  WS02006232           JUNCTION        1.59          1.480        0.000
  WS02006234           JUNCTION        1.51          1.240        0.000
  WS02006235           JUNCTION        1.52          1.290        0.000
  WS02006238           JUNCTION        1.52          1.302        0.128
  WS02006239           JUNCTION        1.50          1.290        0.000
  WS02006240           JUNCTION        1.48          1.121        0.269
  WS02006242           JUNCTION        1.50          0.820        0.000
  WS02006243           JUNCTION        1.43          0.770        0.000
  WS02006245           JUNCTION        1.40          0.850        0.000
  WS02006247           JUNCTION        1.40          0.760        0.000
  WS02006248           JUNCTION        1.35          0.380        0.000
  WS02006249           JUNCTION        1.36          0.390        0.000
  WS02006251           JUNCTION        1.18          1.127        0.053
  WS02006252           JUNCTION        1.31          1.100        0.000
  WS02006253           JUNCTION        1.18          1.875        0.605
  WS02006256           JUNCTION        7.99          2.050        0.000
  WS02006280           JUNCTION        0.45          0.780        0.000
  WS02006284           JUNCTION        0.39          0.800        0.000
  WS02006287           JUNCTION        0.31          0.729        0.161
  YS02001580           JUNCTION        0.21          0.450        0.000
  YS02001583           JUNCTION        0.22          0.500        0.000
  YS02001586           JUNCTION        0.38          0.510        0.000
  YS02001590           JUNCTION        0.45          0.750        0.000
  YS02001593           JUNCTION        0.45          0.769        0.071
  YS02001596           JUNCTION        0.54          1.030        0.040
  YS02001600           JUNCTION        0.65          1.190        0.000
  YS02001601           JUNCTION        0.98          1.440        0.000
  YS02001602           JUNCTION        0.86          1.270        0.000
  YS02001605           JUNCTION        0.81          1.180        0.000
  YS02001607           JUNCTION        0.40          0.680        0.000
  YS02001610           JUNCTION        0.43          0.680        0.000
  YS02001613           JUNCTION        0.40          0.699        0.001
  YS02001616           JUNCTION        0.36          0.610        0.000
  YS02001619           JUNCTION        0.35          0.610        0.000
  YS02001622           JUNCTION        0.35          0.605        0.015
  YS02001625           JUNCTION        0.50          0.780        0.000
  YS02001629           JUNCTION        0.29          0.470        0.000
  YS02001633           JUNCTION        0.52          0.841        0.219
  YS02001641           JUNCTION        0.46          0.626        0.474
  YS02001644           JUNCTION        0.43          0.561        0.359
  YS02001647           JUNCTION        0.18          0.252        0.648
  YS02001649           JUNCTION        0.32          0.309        0.741
  YS02001652           JUNCTION        0.02          0.169        0.961
  YS02001757           JUNCTION        0.35          0.269        0.941
  YS02001759           JUNCTION        0.24          0.165        1.045
  YS02001762           JUNCTION        0.18          0.128        1.022
  YS02001765           JUNCTION        0.11          0.079        1.021
  YS02001767           JUNCTION        0.05          0.050        0.980
  YS02001770           JUNCTION        0.01          0.011        0.909
  YS02001774           JUNCTION        0.17          0.110        0.940
  YS02001783           JUNCTION        0.24          0.309        1.291
  YS02001784           JUNCTION        0.21          0.221        1.269
  YS02001786           JUNCTION        0.05          0.023        1.407
  YS02001882           JUNCTION        0.17          0.393        0.437
  YS02001884           JUNCTION        0.19          0.431        0.439
  YS02001887           JUNCTION        0.22          0.516        0.434
  YS02001890           JUNCTION        0.24          0.539        0.221
  YS02001895           JUNCTION        0.16          0.339        0.411
  YS02001898           JUNCTION        0.15          0.310        0.430
  YS02001901           JUNCTION        0.21          0.457        0.413
  YS02001904           JUNCTION        0.20          0.421        0.429
  YS02001907           JUNCTION        0.40          0.738        0.212
  YS02001910           JUNCTION        0.27          0.544        0.556
  YS02001915           JUNCTION        0.17          0.346        0.654
  YS02001918           JUNCTION        0.01          0.004        0.806
  YS02001920           JUNCTION        0.05          0.104        1.036
  YS02006553           JUNCTION        0.42          0.724        0.466
  YS02006556           JUNCTION        0.34          0.626        0.724
  YS02006558           JUNCTION        0.33          0.595        0.805
  YS02163301           JUNCTION        0.50          0.892        0.138
  YS02163601           JUNCTION        0.54          0.786        0.294
  YS02164001           JUNCTION        0.47          0.656        0.444
  YSB1154              JUNCTION        0.56          1.281        0.119
  YSB1171              JUNCTION        0.56          1.100        0.000
  YSB1174              JUNCTION        0.48          1.150        0.100
  YSB6556              JUNCTION        0.43          1.100        0.000
  
  
  *********************
  Node Flooding Summary
  *********************
  
  Flooding refers to all water that overflows a node, whether it ponds or not.
  --------------------------------------------------------------------------
                                                             Total   Maximum
                                 Maximum   Time of Max       Flood    Ponded
                        Hours       Rate    Occurrence      Volume     Depth
  Node                 Flooded       LPS   days hr:min    10^6 ltr    Meters
  --------------------------------------------------------------------------
  HS02004770              0.09    254.17      0  01:38       0.044     0.000
  HS02004777              0.01     89.98      0  01:38       0.001     0.000
  HS02004785              0.01    156.97      0  01:38       0.001     0.000
  HS02004788              0.01    286.67      0  01:38       0.001     0.000
  HS02004792              0.04    160.78      0  01:37       0.005     0.000
  HS02004799              0.01     45.35      0  01:38       0.000     0.000
  HS02004901              0.17    361.70      0  01:43       0.132     0.000
  WS02006109              0.14     92.25      0  01:37       0.016     0.000
  WS02006110              0.01     45.37      0  01:37       0.000     0.000
  WS02006111              0.01    456.76      0  01:37       0.001     0.000
  WS02006112              0.01    194.86      0  01:37       0.001     0.000
  WS02006228              0.01     45.39      0  01:37       0.000     0.000
  WS02006229              0.01     82.29      0  01:37       0.000     0.000
  WS02006230              0.40    458.99      0  01:43       0.389     0.000
  WS02006232              0.10      3.00      0  01:37       0.000     0.000
  WS02006234              0.43     56.58      0  01:50       0.082     0.000
  WS02006235              0.01     42.59      0  01:36       0.000     0.000
  WS02006239              0.01    159.21      0  01:36       0.000     0.000
  WS02006242              0.55    381.72      0  01:36       0.206     0.000
  WS02006243              0.01    468.16      0  01:36       0.001     0.000
  WS02006245              0.01    355.79      0  01:37       0.001     0.000
  WS02006247              0.01    554.99      0  01:37       0.002     0.000
  WS02006248              0.73    591.30      0  01:37       0.687     0.000
  WS02006249              1.20   1308.22      0  01:44       2.300     0.000
  WS02006252              0.01    245.63      0  00:00       0.002     0.000
  WS02006256              0.37    297.37      0  02:08       0.131     0.000
  WS02006280              0.01    311.80      0  01:37       0.000     0.000
  WS02006284              0.01    316.61      0  01:37       0.000     0.000
  YS02001580              0.01     73.46      0  01:39       0.000     0.000
  YS02001583              0.01    108.95      0  01:39       0.000     0.000
  YS02001586              0.01    115.84      0  01:39       0.002     0.000
  YS02001590              0.01      5.40      0  01:39       0.000     0.000
  YS02001600              0.01      7.40      0  01:37       0.000     0.000
  YS02001601              0.31    418.06      0  01:42       0.284     0.000
  YS02001602              0.13     39.70      0  01:45       0.009     0.000
  YS02001605              0.01      0.41      0  01:46       0.000     0.000
  YS02001607              0.01     69.87      0  01:39       0.000     0.000
  YS02001610              0.01     28.10      0  01:39       0.000     0.000
  YS02001616              0.01     60.32      0  01:39       0.000     0.000
  YS02001619              0.01     73.39      0  01:39       0.000     0.000
  YS02001625              0.01     50.87      0  01:39       0.001     0.000
  YS02001629              0.01    256.03      0  01:39       0.001     0.000
  YSB1171                 0.01    102.32      0  01:38       0.001     0.000
  YSB6556                 0.01     15.34      0  01:38       0.000     0.000
  
  
  **********************
  Storage Volume Summary
  **********************
  
  --------------------------------------------------------------------------------------------------
                         Average     Avg  Evap Exfil       Maximum     Max    Time of Max    Maximum
                          Volume    Pcnt  Pcnt  Pcnt        Volume    Pcnt     Occurrence    Outflow
  Storage Unit           1000 m3    Full  Loss  Loss       1000 m3    Full    days hr:min        LPS
  --------------------------------------------------------------------------------------------------
  CC-storage               3.019      47     0     0         3.984      62       0  02:04    1783.53
  JK-storage               0.147      51     0     0         0.216      74       0  01:45    2300.00
  XR-storage               0.955      66     0     0         1.111      77       0  08:00     380.00
  
  
  ***********************
  Outfall Loading Summary
  ***********************
  
  -----------------------------------------------------------
                         Flow       Avg       Max       Total
                         Freq      Flow      Flow      Volume
  Outfall Node           Pcnt       LPS       LPS    10^6 ltr
  -----------------------------------------------------------
  CC-1                  20.73    683.00    683.00       3.139
  CC-2                   6.42    683.00    683.00       1.003
  JK-1                  16.14    526.42   1000.00       1.668
  JK-2                   4.69    442.95   1000.00       0.453
  WSC                   99.96    544.87   1470.22      12.737
  -----------------------------------------------------------
  System                29.59   2880.24   1470.22      19.001
  
  
  ********************
  Link Flow Summary
  ********************
  
  -----------------------------------------------------------------------------
                                 Maximum  Time of Max   Maximum    Max/    Max/
                                  |Flow|   Occurrence   |Veloc|    Full    Full
  Link                 Type          LPS  days hr:min     m/sec    Flow   Depth
  -----------------------------------------------------------------------------
  1                    CONDUIT   1470.22     0  01:48      3.68    0.51    0.51
  HS02004478WS02006287 CONDUIT   2065.77     0  01:43      2.88    0.58    1.00
  HS02004479HS02004480 CONDUIT    381.61     0  01:38      0.55    0.37    1.00
  HS02004480HS02004478 CONDUIT   2171.92     0  01:38      3.10    9.15    1.00
  HS02004770HS02004777 CONDUIT    846.02     0  01:38      1.21    1.55    1.00
  HS02004777HS02004785 CONDUIT    852.30     0  01:38      1.35    1.05    1.00
  HS02004785HS02004788 CONDUIT    745.18     0  01:38      1.35    5.62    1.00
  HS02004788HS02004792 CONDUIT    824.96     0  01:48      1.43    0.55    1.00
  HS02004792HS02004799 CONDUIT   1639.02     0  01:39      2.34    1.00    1.00
  HS02004799HS02004480 CONDUIT   1789.37     0  01:39      2.56    2.26    1.00
  HS02004802HS02004478 CONDUIT    332.75     0  02:04      0.65    0.29    1.00
  HS02004807HS02004802 CONDUIT    320.16     0  02:04      0.58    0.61    1.00
  HS02004817HS02004807 CONDUIT    497.84     0  01:38      0.71    0.29    1.00
  HS02004817HS02004824 CONDUIT    496.75     0  01:38      0.71    0.22    1.00
  HS02004824HS02004830 CONDUIT    707.04     0  01:38      1.07    0.93    1.00
  HS02004830HS02004837 CONDUIT    736.74     0  01:39      1.19    0.73    1.00
  HS02004837HS02004842 CONDUIT    848.51     0  01:39      1.21    0.51    1.00
  HS02004842HS02004848 CONDUIT    847.68     0  01:39      1.35    0.49    1.00
  HS02004848HS02004852 CONDUIT   1025.20     0  01:40      1.67    1.16    1.00
  HS02004852HS02004856 CONDUIT    963.68     0  01:40      1.51    1.10    1.00
  HS02004856HS02004862 CONDUIT   1035.31     0  01:40      1.70    1.03    1.00
  HS02004862HS02004870 CONDUIT   1158.40     0  01:41      1.96    1.25    1.00
  HS02004870HS02004876 CONDUIT   1284.62     0  01:41      2.10    0.85    1.00
  HS02004876HS02004881 CONDUIT   1312.19     0  01:41      2.51   13.96    1.00
  HS02004881HS02006253 CONDUIT   1243.04     0  01:42      2.77    0.24    1.00
  HS02004901HS02004770 CONDUIT    214.71     0  01:43      0.31    0.81    1.00
  WS02001211WS02001212 CONDUIT    304.32     0  01:46      0.54    0.23    0.71
  WS02001212WS02001213 CONDUIT    326.54     0  01:46      1.04    0.50    0.60
  WS02001213WS02003059 CONDUIT    287.38     0  01:45      0.47    0.47    0.91
  WS02003059WS02003060 CONDUIT    361.26     0  01:40      0.67    0.24    0.81
  WS02003060WS02003069 CONDUIT   1474.32     0  01:48      2.20    0.58    0.60
  WS02003066WSF200     CONDUIT   1254.01     0  01:42      3.62    0.21    0.40
  WS02003067WS02003066 CONDUIT   1258.00     0  01:41      1.99    0.40    0.58
  WS02003069WS02003072 CONDUIT   1466.35     0  01:48      1.88    0.71    0.65
  WS02003072WS02003073 CONDUIT   1469.03     0  01:47      2.04    3.17    0.61
  WS02004138WS02004139 CONDUIT    190.00     0  00:32      2.15    0.04    0.43
  WS02004139WS02001211 CONDUIT    348.23     0  01:43      0.54    0.44    0.62
  WS02004401WS02004402 CONDUIT   1280.73     0  01:39      1.63    1.54    1.00
  WS02004402WS02004403 CONDUIT   1281.31     0  01:39      1.63    1.84    1.00
  WS02004403WS02004404 CONDUIT   1282.57     0  01:39      1.63    0.93    1.00
  WS02004404WS02004405 CONDUIT   1284.94     0  01:39      1.64   12.59    1.00
  WS02004405WS02004406 CONDUIT   1285.48     0  01:39      1.64    2.54    1.00
  WS02004406WS02004407 CONDUIT   1285.64     0  01:39      2.05    0.57    0.92
  WS02004407WS02004409 CONDUIT   1326.45     0  01:38      2.22    0.47    0.92
  WS02004409WS02004410 CONDUIT   1294.02     0  01:38      1.73    1.67    1.00
  WS02004410WS02004411 CONDUIT   1251.73     0  01:38      1.69    1.71    1.00
  WS02004411WS02004412 CONDUIT   1245.03     0  01:42      1.63    1.77    1.00
  WS02004412WS02004413 CONDUIT   1245.03     0  01:42      1.59    0.83    1.00
  WS02004413WS02003067 CONDUIT   1245.45     0  01:42      1.95    0.53    0.76
  WS02006109WS02006110 CONDUIT   1211.70     0  01:37      2.41    2.33    1.00
  WS02006110WS02006113 CONDUIT   1211.63     0  01:37      2.41    1.10    1.00
  WS02006111WS02006112 CONDUIT   1133.09     0  01:39      2.25    0.54    1.00
  WS02006112WS02006115 CONDUIT   1278.16     0  01:39      1.63    0.75    1.00
  WS02006113WS02006111 CONDUIT   1239.90     0  01:37      2.69    1.49    1.00
  WS02006115WS02006116 CONDUIT   1279.47     0  01:39      1.63    1.64    1.00
  WS02006116WS02004401 CONDUIT   1280.16     0  01:39      1.63    1.76    1.00
  WS02006228WS02006109 CONDUIT   1211.07     0  01:37      2.41    5.29    1.00
  WS02006229WS02006228 CONDUIT   1212.62     0  01:37      2.41    4.02    1.00
  WS02006230WS02006229 CONDUIT    902.07     0  01:43      2.34   20.08    1.00
  WS02006231WS02006230 CONDUIT    453.30     0  01:42      1.31    6.88    1.00
  WS02006232WS02006231 CONDUIT    453.36     0  01:45      1.18    0.95    1.00
  WS02006234WS02006232 CONDUIT    453.07     0  01:45      1.41    0.92    1.00
  WS02006235WS02006234 CONDUIT    410.88     0  03:20      1.26    4.34    1.00
  WS02006238WS02006235 CONDUIT    407.22     0  01:59      1.45    0.91    1.00
  WS02006239WS02006238 CONDUIT    401.37     0  01:59      1.12    1.28    1.00
  WS02006240WS02006239 CONDUIT    401.04     0  02:02      1.26    1.26    1.00
  WS02006242WS02006240 CONDUIT    400.84     0  02:00      1.14    1.59    1.00
  WS02006243WS02006242 CONDUIT    372.51     0  01:36      1.34    0.80    1.00
  WS02006245WS02006243 CONDUIT    371.48     0  00:05      1.39    1.10    1.00
  WS02006247WS02006245 CONDUIT    383.09     0  00:05      1.37    3.04    1.00
  WS02006248WS02006247 CONDUIT    385.59     0  00:04      1.38    0.84    1.00
  WS02006249WS02006248 CONDUIT    390.96     0  00:04      1.38    2.14    1.00
  WS02006251WS02006249 CONDUIT   1292.38     0  01:44      3.36    3.73    1.00
  WS02006252WS02006251 CONDUIT    411.17     0  02:05      3.83    1.51    1.00
  WS02006253WS02006251 CONDUIT   1265.14     0  01:42      3.29    3.79    1.00
  WS02006256WS02006235 CONDUIT    288.93     0  00:00      4.23    3.06    1.00
  WS02006280WS02006229 CONDUIT   2070.99     0  01:43      4.89    0.44    1.00
  WS02006284WS02006280 CONDUIT   2069.79     0  01:43      3.20    0.87    1.00
  WS02006287WS02006284 CONDUIT   2068.76     0  01:43      2.99    0.96    1.00
  WSF200WS02003060     CONDUIT   1419.52     0  01:40      2.99    0.32    0.50
  YS02001580YS02001583 CONDUIT    136.95     0  01:38      0.83    0.53    1.00
  YS02001583YS02001586 CONDUIT    178.38     0  01:38      0.84    0.27    1.00
  YS02001586YS02001590 CONDUIT    292.18     0  01:43      1.33    0.51    1.00
  YS02001590YS02001593 CONDUIT    291.97     0  01:44      1.04    1.83    1.00
  YS02001593YS02001596 CONDUIT    291.92     0  01:43      1.71    0.46    1.00
  YS02001596YS02001600 CONDUIT    291.97     0  01:43      1.18    0.57    1.00
  YS02001600YS02001601 CONDUIT    291.91     0  01:43      1.03    0.50    1.00
  YS02001601YS02001602 CONDUIT    583.85     0  01:39      2.06    2.11    1.00
  YS02001602YS02001605 CONDUIT    583.74     0  01:39      2.06   12.35    1.00
  YS02001605YS02001607 CONDUIT    583.70     0  01:38      2.06    3.20    1.00
  YS02001607YS02001610 CONDUIT    561.67     0  01:38      0.76    0.53    1.00
  YS02001610YS02001613 CONDUIT    525.46     0  01:39      0.71    0.61    1.00
  YS02001613YS02001616 CONDUIT    487.74     0  01:39      0.70    0.42    1.00
  YS02001616YS02001619 CONDUIT    495.35     0  01:39      0.69    0.86    1.00
  YS02001619YS02001622 CONDUIT    953.07     0  01:39      1.38    1.40    1.00
  YS02001622YS02001625 CONDUIT    959.75     0  01:39      1.22    0.51    1.00
  YS02001625YS02001629 CONDUIT    962.64     0  01:39      1.23    0.46    1.00
  YS02001629YS02163301 CONDUIT    909.11     0  01:41      1.16    1.12    1.00
  YS02001633YS02163601 CONDUIT   1314.20     0  01:41      1.67    1.38    1.00
  YS02001641YS02001644 CONDUIT   1317.45     0  01:41      1.68    4.26    1.00
  YS02001644YS02001647 CONDUIT   1667.64     0  01:41      2.22    0.98    1.00
  YS02001647YS02001649 CONDUIT   1680.80     0  01:42      2.34    0.89    1.00
  YS02001649YS02001757 CONDUIT   2022.50     0  01:41      2.61    1.23    1.00
  YS02001652YS02001649 CONDUIT    425.62     0  01:41      0.92    0.21    1.00
  YS02001655YS02001652 CONDUIT    442.26     0  01:41      1.74    0.21    0.91
  YS02001658YS02001655 CONDUIT    364.06     0  01:48      2.03    0.15    0.63
  YS02001661YS02001658 CONDUIT    345.96     0  01:40      2.19    0.14    0.36
  YS02001664YS02001661 CONDUIT    346.21     0  01:40      2.01    0.11    0.27
  YS02001745YS02001748 CONDUIT    226.81     0  01:39      2.03    0.09    0.26
  YS02001748YS02001751 CONDUIT    234.35     0  01:49      1.70    0.12    0.52
  YS02001751YS02001754 CONDUIT    269.34     0  01:47      1.68    0.13    0.73
  YS02001754YS02001757 CONDUIT    254.06     0  01:42      0.68    0.10    0.96
  YS02001757CaochengTiaoxuchi CONDUIT   2538.48     0  01:42      3.38    1.10    1.00
  YS02001759YS02001757 CONDUIT    611.18     0  01:42      1.16    0.43    1.00
  YS02001762YS02001759 CONDUIT    368.78     0  01:45      0.56    0.42    1.00
  YS02001765YS02001762 CONDUIT    386.18     0  01:43      0.74    0.36    1.00
  YS02001767YS02001765 CONDUIT    427.82     0  01:43      0.91    0.54    1.00
  YS02001770YS02001767 CONDUIT    411.39     0  01:43      0.96    1.63    1.00
  YS02001774YS02001770 CONDUIT    119.91     0  01:40      0.21    0.08    1.00
  YS02001779YS02001774 CONDUIT     66.76     0  01:40      0.13    0.03    0.92
  YS02001783YS02001784 CONDUIT   1078.88     0  01:43      2.15    1.49    1.00
  YS02001784YS02001785 CONDUIT   1079.55     0  01:44      2.15    2.51    1.00
  YS02001786YS02001788 CONDUIT   1076.14     0  01:46      2.36    2.07    0.87
  YS02001788YS02001790 CONDUIT   1086.01     0  01:46      2.62    0.80    0.79
  YS02001790YS02001791 CONDUIT   1175.99     0  01:46      3.32    1.28    0.67
  YS02001791YS02001793 CONDUIT   1122.09     0  01:46      6.58    0.48    0.41
  YS02001793JiankangQianchi CONDUIT   1121.42     0  01:46      2.26    0.09    0.63
  YS02001882YS02001884 CONDUIT     49.66     0  01:40      0.14    0.06    1.00
  YS02001884YS02001887 CONDUIT     86.91     0  01:40      0.14    0.12    1.00
  YS02001887YS02001890 CONDUIT    352.86     0  01:40      0.45    0.60    1.00
  YS02001890YS02001895 CONDUIT    355.37     0  01:40      0.46    0.17    1.00
  YS02001895YS02001898 CONDUIT    346.30     0  01:41      0.47    0.60    1.00
  YS02001898YS02001901 CONDUIT    353.04     0  01:41      0.45    0.23    1.00
  YS02001901YS02001904 CONDUIT    354.70     0  01:41      0.45    0.55    1.00
  YS02001904YS02001907 CONDUIT    356.72     0  01:41      0.45    0.12    1.00
  YS02001907YS02006553 CONDUIT    755.68     0  01:48      0.84    0.89    1.00
  YS02001910YS02001907 CONDUIT    563.63     0  01:49      0.72    0.32    1.00
  YS02001915YS02001910 CONDUIT    563.45     0  01:49      0.72    0.28    1.00
  YS02001918YS02001915 CONDUIT    306.20     0  01:50      0.44    0.17    1.00
  YS02001920YS02001918 CONDUIT    292.33     0  01:49      0.71    0.28    1.00
  YS02001923YS02001920 CONDUIT    272.26     0  01:47      0.87    0.12    0.92
  YS02001926YS02001923 CONDUIT    251.00     0  01:46      0.95    0.36    0.60
  YS02001929YS02001926 CONDUIT    222.46     0  01:45      1.05    0.11    0.49
  YS02006553YS02006556 CONDUIT    755.31     0  01:48      0.96    0.65    1.00
  YS02006556YS02006558 CONDUIT    756.33     0  01:48      0.96    0.60    1.00
  YS02006558YS02006561 CONDUIT   1095.33     0  01:43      3.87    2.42    1.00
  YS02006561YS02001783 CONDUIT   1078.42     0  01:43      2.27    0.56    0.93
  YS02163301YS02001633 CONDUIT    908.08     0  01:41      1.16    0.85    1.00
  YS02163601YS02164001 CONDUIT   1314.51     0  01:41      1.67    1.16    1.00
  YS02164001YS02001641 CONDUIT   1316.33     0  01:41      1.68    1.80    1.00
  YSB1154YSB6556       CONDUIT    192.69     0  01:40      0.50    0.35    1.00
  YSB1171HS02004479    CONDUIT    372.98     0  01:38      0.74    0.25    1.00
  YSB1174YSB1171       CONDUIT    171.35     0  01:38      0.45    0.26    1.00
  YSB6556YSB1171       CONDUIT    195.91     0  01:39      0.51    0.20    1.00
  CC-R1                PUMP       683.00     0  00:00              1.00
  CC-R2                PUMP       683.00     0  00:00              1.00
  CC-S1                PUMP       200.00     0  00:00              1.00
  CC-S2                PUMP       200.00     0  00:00              1.00
  JK-R1                PUMP      1000.00     0  00:00              1.00
  JK-R2                PUMP      1000.00     0  00:00              1.00
  JK-S                 PUMP       300.00     0  00:00              1.00
  XR-1                 PUMP        95.00     0  00:00              1.00
  XR-2                 PUMP        95.00     0  00:00              1.00
  XR-3                 PUMP        95.00     0  00:00              1.00
  XR-4                 PUMP        95.00     0  00:00              1.00
  
  
  ***************************
  Flow Classification Summary
  ***************************
  
  -------------------------------------------------------------------------------------
                      Adjusted    ---------- Fraction of Time in Flow Class ---------- 
                       /Actual         Up    Down  Sub   Sup   Up    Down  Norm  Inlet 
  Conduit               Length    Dry  Dry   Dry   Crit  Crit  Crit  Crit  Ltd   Ctrl  
  -------------------------------------------------------------------------------------
  1                       1.00   0.00  0.00  0.00  0.00  1.00  0.00  0.00  0.38  0.00
  HS02004478WS02006287    1.00   0.11  0.00  0.00  0.60  0.29  0.00  0.00  0.62  0.00
  HS02004479HS02004480    1.00   0.03  0.00  0.00  0.97  0.00  0.00  0.00  0.12  0.00
  HS02004480HS02004478    1.00   0.09  0.00  0.00  0.54  0.00  0.00  0.37  0.00  0.00
  HS02004770HS02004777    1.00   0.00  0.09  0.00  0.91  0.00  0.00  0.00  0.03  0.00
  HS02004777HS02004785    1.00   0.00  0.00  0.00  1.00  0.00  0.00  0.00  0.12  0.00
  HS02004785HS02004788    1.00   0.00  0.00  0.00  1.00  0.00  0.00  0.00  0.00  0.00
  HS02004788HS02004792    1.00   0.00  0.00  0.00  0.99  0.01  0.00  0.00  0.93  0.00
  HS02004792HS02004799    1.00   0.00  0.00  0.00  0.99  0.01  0.00  0.00  0.90  0.00
  HS02004799HS02004480    1.00   0.00  0.02  0.00  0.89  0.00  0.09  0.00  0.00  0.00
  HS02004802HS02004478    1.00   0.09  0.01  0.00  0.91  0.00  0.00  0.00  0.03  0.00
  HS02004807HS02004802    1.00   0.09  0.00  0.00  0.90  0.00  0.00  0.01  0.00  0.00
  HS02004817HS02004807    1.00   0.00  0.09  0.00  0.91  0.00  0.00  0.00  0.01  0.00
  HS02004817HS02004824    1.00   0.00  0.00  0.00  1.00  0.00  0.00  0.00  0.86  0.00
  HS02004824HS02004830    1.00   0.00  0.00  0.00  1.00  0.00  0.00  0.00  0.01  0.00
  HS02004830HS02004837    1.00   0.00  0.00  0.00  1.00  0.00  0.00  0.00  0.92  0.00
  HS02004837HS02004842    1.00   0.00  0.00  0.00  1.00  0.00  0.00  0.00  0.11  0.00
  HS02004842HS02004848    1.00   0.00  0.09  0.00  0.91  0.00  0.00  0.00  0.60  0.00
  HS02004848HS02004852    1.00   0.09  0.00  0.00  0.91  0.00  0.00  0.00  0.74  0.00
  HS02004852HS02004856    1.00   0.09  0.01  0.00  0.91  0.00  0.00  0.00  0.73  0.00
  HS02004856HS02004862    1.00   0.00  0.12  0.00  0.88  0.00  0.00  0.00  0.77  0.00
  HS02004862HS02004870    1.00   0.00  0.00  0.00  1.00  0.00  0.00  0.00  0.03  0.00
  HS02004870HS02004876    1.00   0.00  0.00  0.00  0.99  0.01  0.00  0.00  0.89  0.00
  HS02004876HS02004881    1.00   0.01  0.00  0.00  0.75  0.23  0.00  0.00  0.00  0.00
  HS02004881HS02006253    1.00   0.03  0.01  0.00  0.43  0.02  0.00  0.51  0.21  0.00
  HS02004901HS02004770    1.00   0.09  0.00  0.00  0.91  0.00  0.00  0.00  0.00  0.00
  WS02001211WS02001212    1.00   0.00  0.02  0.00  0.98  0.00  0.00  0.00  0.00  0.00
  WS02001212WS02001213    1.00   0.02  0.00  0.00  0.38  0.00  0.60  0.00  0.00  0.00
  WS02001213WS02003059    1.00   0.00  0.00  0.00  1.00  0.00  0.00  0.00  0.00  0.00
  WS02003059WS02003060    1.00   0.00  0.00  0.00  1.00  0.00  0.00  0.00  0.03  0.00
  WS02003060WS02003069    1.00   0.00  0.00  0.00  0.98  0.02  0.00  0.00  0.49  0.00
  WS02003066WSF200        1.00   0.08  0.00  0.00  0.00  0.92  0.00  0.00  0.66  0.00
  WS02003067WS02003066    1.00   0.07  0.01  0.00  0.92  0.00  0.00  0.00  0.00  0.00
  WS02003069WS02003072    1.00   0.00  0.00  0.00  1.00  0.00  0.00  0.00  0.70  0.00
  WS02003072WS02003073    1.00   0.00  0.00  0.00  0.00  0.00  0.00  1.00  0.00  0.00
  WS02004138WS02004139    1.00   0.00  0.00  0.00  0.98  0.00  0.00  0.01  0.98  0.00
  WS02004139WS02001211    1.00   0.00  0.00  0.00  1.00  0.00  0.00  0.00  0.00  0.00
  WS02004401WS02004402    1.00   0.02  0.00  0.00  0.98  0.00  0.00  0.00  0.00  0.00
  WS02004402WS02004403    1.00   0.02  0.00  0.00  0.98  0.00  0.00  0.00  0.00  0.00
  WS02004403WS02004404    1.00   0.00  0.02  0.00  0.98  0.00  0.00  0.00  0.00  0.00
  WS02004404WS02004405    1.00   0.00  0.00  0.00  1.00  0.00  0.00  0.00  0.00  0.00
  WS02004405WS02004406    1.00   0.00  0.00  0.00  1.00  0.00  0.00  0.00  0.00  0.00
  WS02004406WS02004407    1.00   0.00  0.03  0.00  0.97  0.00  0.00  0.00  0.00  0.00
  WS02004407WS02004409    1.00   0.03  0.00  0.00  0.96  0.01  0.00  0.00  0.86  0.00
  WS02004409WS02004410    1.00   0.03  0.00  0.00  0.97  0.00  0.00  0.00  0.02  0.00
  WS02004410WS02004411    1.00   0.04  0.00  0.00  0.96  0.00  0.00  0.00  0.00  0.00
  WS02004411WS02004412    1.00   0.04  0.00  0.00  0.96  0.00  0.00  0.00  0.00  0.00
  WS02004412WS02004413    1.00   0.04  0.00  0.00  0.96  0.00  0.00  0.00  0.01  0.00
  WS02004413WS02003067    1.00   0.04  0.03  0.00  0.00  0.00  0.93  0.00  0.00  0.00
  WS02006109WS02006110    1.00   0.00  0.01  0.00  0.99  0.00  0.01  0.00  0.00  0.00
  WS02006110WS02006113    1.00   0.01  0.01  0.00  0.99  0.00  0.00  0.00  0.00  0.00
  WS02006111WS02006112    1.00   0.01  0.00  0.00  0.98  0.00  0.00  0.00  0.80  0.00
  WS02006112WS02006115    1.00   0.01  0.00  0.00  0.98  0.00  0.00  0.00  0.00  0.00
  WS02006113WS02006111    1.00   0.01  0.00  0.00  0.20  0.79  0.00  0.00  0.07  0.00
  WS02006115WS02006116    1.00   0.02  0.00  0.00  0.98  0.00  0.00  0.01  0.00  0.00
  WS02006116WS02004401    1.00   0.02  0.00  0.00  0.98  0.00  0.00  0.00  0.00  0.00
  WS02006228WS02006109    1.00   0.00  0.00  0.00  1.00  0.00  0.00  0.00  0.00  0.00
  WS02006229WS02006228    1.00   0.00  0.00  0.00  0.99  0.00  0.00  0.00  0.00  0.00
  WS02006230WS02006229    1.00   0.00  0.00  0.00  0.99  0.00  0.00  0.01  0.00  0.00
  WS02006231WS02006230    1.00   0.00  0.00  0.00  0.39  0.00  0.60  0.00  0.00  0.00
  WS02006232WS02006231    1.00   0.00  0.00  0.00  0.99  0.00  0.00  0.00  0.00  0.00
  WS02006234WS02006232    1.00   0.00  0.00  0.00  1.00  0.00  0.00  0.00  0.00  0.00
  WS02006235WS02006234    1.00   0.00  0.00  0.00  0.79  0.00  0.21  0.00  0.00  0.00
  WS02006238WS02006235    1.00   0.00  0.00  0.00  1.00  0.00  0.00  0.00  0.00  0.00
  WS02006239WS02006238    1.00   0.00  0.00  0.00  1.00  0.00  0.00  0.00  0.04  0.00
  WS02006240WS02006239    1.00   0.00  0.00  0.00  0.62  0.00  0.00  0.38  0.01  0.00
  WS02006242WS02006240    1.00   0.00  0.00  0.00  0.98  0.00  0.02  0.00  0.00  0.00
  WS02006243WS02006242    1.00   0.00  0.00  0.00  0.99  0.00  0.00  0.01  0.64  0.00
  WS02006245WS02006243    1.00   0.00  0.00  0.00  0.91  0.00  0.00  0.09  0.01  0.00
  WS02006247WS02006245    1.00   0.00  0.00  0.00  0.97  0.00  0.00  0.03  0.00  0.00
  WS02006248WS02006247    1.00   0.00  0.00  0.00  0.99  0.00  0.00  0.01  0.65  0.00
  WS02006249WS02006248    1.00   0.00  0.00  0.00  0.53  0.00  0.47  0.00  0.00  0.00
  WS02006251WS02006249    1.00   0.00  0.00  0.00  1.00  0.00  0.00  0.00  0.66  0.00
  WS02006252WS02006251    1.00   0.00  0.00  0.00  0.20  0.00  0.80  0.00  0.00  0.00
  WS02006253WS02006251    1.00   0.00  0.00  0.00  1.00  0.00  0.00  0.00  0.00  0.00
  WS02006256WS02006235    1.00   0.00  0.00  0.00  1.00  0.00  0.00  0.00  0.00  0.00
  WS02006280WS02006229    1.00   0.09  0.00  0.00  0.13  0.06  0.00  0.72  0.02  0.00
  WS02006284WS02006280    1.00   0.09  0.00  0.00  0.08  0.02  0.00  0.81  0.00  0.00
  WS02006287WS02006284    1.00   0.07  0.04  0.00  0.52  0.37  0.00  0.00  0.66  0.00
  WSF200WS02003060        1.00   0.00  0.08  0.00  0.56  0.36  0.00  0.00  0.63  0.00
  YS02001580YS02001583    1.00   0.15  0.65  0.00  0.20  0.00  0.00  0.00  0.74  0.00
  YS02001583YS02001586    1.00   0.39  0.27  0.00  0.33  0.00  0.00  0.00  0.74  0.00
  YS02001586YS02001590    1.00   0.09  0.00  0.00  0.48  0.05  0.00  0.38  0.32  0.00
  YS02001590YS02001593    1.00   0.09  0.01  0.00  0.09  0.00  0.82  0.00  0.00  0.00
  YS02001593YS02001596    1.00   0.09  0.00  0.00  0.11  0.01  0.00  0.79  0.02  0.00
  YS02001596YS02001600    1.00   0.09  0.00  0.00  0.19  0.04  0.00  0.68  0.06  0.00
  YS02001600YS02001601    1.00   0.09  0.01  0.00  0.90  0.00  0.00  0.00  0.64  0.00
  YS02001601YS02001602    1.00   0.09  0.01  0.00  0.91  0.00  0.00  0.00  0.00  0.00
  YS02001602YS02001605    1.00   0.09  0.00  0.00  0.91  0.00  0.00  0.00  0.00  0.00
  YS02001605YS02001607    1.00   0.10  0.00  0.00  0.90  0.00  0.00  0.00  0.00  0.00
  YS02001607YS02001610    1.00   0.09  0.01  0.00  0.90  0.00  0.00  0.00  0.02  0.00
  YS02001610YS02001613    1.00   0.09  0.00  0.00  0.91  0.00  0.00  0.00  0.01  0.00
  YS02001613YS02001616    1.00   0.09  0.00  0.00  0.91  0.00  0.00  0.00  0.01  0.00
  YS02001616YS02001619    1.00   0.09  0.00  0.00  0.91  0.00  0.00  0.00  0.00  0.00
  YS02001619YS02001622    1.00   0.09  0.00  0.00  0.91  0.00  0.00  0.00  0.37  0.00
  YS02001622YS02001625    1.00   0.09  0.00  0.00  0.91  0.00  0.00  0.00  0.05  0.00
  YS02001625YS02001629    1.00   0.09  0.04  0.00  0.13  0.00  0.74  0.00  0.00  0.00
  YS02001629YS02163301    1.00   0.11  0.01  0.00  0.88  0.00  0.00  0.00  0.00  0.00
  YS02001633YS02163601    1.00   0.00  0.00  0.00  1.00  0.00  0.00  0.00  0.15  0.00
  YS02001641YS02001644    1.00   0.00  0.00  0.00  1.00  0.00  0.00  0.00  0.00  0.00
  YS02001644YS02001647    1.00   0.00  0.12  0.00  0.88  0.00  0.00  0.00  0.00  0.00
  YS02001647YS02001649    1.00   0.00  0.12  0.00  0.81  0.07  0.00  0.00  0.61  0.00
  YS02001649YS02001757    1.00   0.00  0.00  0.00  1.00  0.00  0.00  0.00  0.19  0.00
  YS02001652YS02001649    1.00   0.00  0.00  0.00  0.97  0.03  0.00  0.00  0.49  0.00
  YS02001655YS02001652    1.00   0.00  0.00  0.00  0.24  0.05  0.00  0.72  0.14  0.00
  YS02001658YS02001655    1.00   0.00  0.10  0.00  0.55  0.35  0.00  0.00  0.76  0.00
  YS02001661YS02001658    1.00   0.10  0.00  0.00  0.40  0.50  0.00  0.00  0.79  0.00
  YS02001664YS02001661    1.00   0.09  0.00  0.00  0.77  0.14  0.00  0.00  0.87  0.00
  YS02001745YS02001748    1.00   0.00  0.00  0.00  0.04  0.02  0.00  0.94  0.04  0.00
  YS02001748YS02001751    1.00   0.00  0.00  0.00  0.70  0.30  0.00  0.00  0.81  0.00
  YS02001751YS02001754    1.00   0.00  0.00  0.00  0.20  0.01  0.00  0.79  0.11  0.00
  YS02001754YS02001757    1.00   0.00  0.00  0.00  1.00  0.00  0.00  0.00  0.62  0.00
  YS02001757CaochengTiaoxuchi    1.00   0.00  0.00  0.00  0.99  0.01  0.00  0.00  0.20  0.00
  YS02001759YS02001757    1.00   0.00  0.00  0.00  1.00  0.00  0.00  0.00  0.06  0.00
  YS02001762YS02001759    1.00   0.00  0.00  0.00  1.00  0.00  0.00  0.00  0.04  0.00
  YS02001765YS02001762    1.00   0.00  0.00  0.00  1.00  0.00  0.00  0.00  0.16  0.00
  YS02001767YS02001765    1.00   0.00  0.00  0.00  1.00  0.00  0.00  0.00  0.00  0.00
  YS02001770YS02001767    1.00   0.00  0.00  0.00  1.00  0.00  0.00  0.00  0.01  0.00
  YS02001774YS02001770    1.00   0.00  0.09  0.00  0.91  0.00  0.00  0.00  0.03  0.00
  YS02001779YS02001774    1.00   0.00  0.00  0.00  1.00  0.00  0.00  0.00  0.77  0.00
  YS02001783YS02001784    1.00   0.00  0.13  0.00  0.87  0.00  0.00  0.00  0.59  0.00
  YS02001784YS02001785    1.00   0.00  0.00  0.00  1.00  0.00  0.00  0.00  0.17  0.00
  YS02001786YS02001788    1.00   0.00  0.00  0.00  0.65  0.35  0.00  0.00  0.00  0.00
  YS02001788YS02001790    1.00   0.00  0.00  0.00  0.14  0.86  0.00  0.00  0.87  0.00
  YS02001790YS02001791    1.00   0.00  0.00  0.00  0.01  0.99  0.00  0.00  0.17  0.00
  YS02001791YS02001793    1.00   0.00  0.00  0.00  0.00  1.00  0.00  0.00  0.00  0.00
  YS02001793JiankangQianchi    1.00   0.00  0.00  0.00  1.00  0.00  0.00  0.00  0.98  0.00
  YS02001882YS02001884    1.00   0.11  0.01  0.00  0.89  0.00  0.00  0.00  0.00  0.00
  YS02001884YS02001887    1.00   0.04  0.04  0.00  0.92  0.00  0.00  0.00  0.00  0.00
  YS02001887YS02001890    1.00   0.00  0.00  0.00  0.98  0.00  0.02  0.00  0.00  0.00
  YS02001890YS02001895    1.00   0.00  0.11  0.00  0.88  0.00  0.00  0.00  0.00  0.00
  YS02001895YS02001898    1.00   0.12  0.00  0.00  0.87  0.00  0.01  0.00  0.00  0.00
  YS02001898YS02001901    1.00   0.12  0.00  0.00  0.88  0.00  0.00  0.00  0.01  0.00
  YS02001901YS02001904    1.00   0.12  0.00  0.00  0.88  0.00  0.00  0.00  0.00  0.00
  YS02001904YS02001907    1.00   0.00  0.11  0.00  0.88  0.00  0.00  0.00  0.00  0.00
  YS02001907YS02006553    1.00   0.00  0.01  0.00  0.98  0.00  0.00  0.00  0.00  0.00
  YS02001910YS02001907    1.00   0.00  0.00  0.00  0.98  0.00  0.00  0.02  0.12  0.00
  YS02001915YS02001910    1.00   0.00  0.00  0.00  0.97  0.03  0.00  0.00  0.16  0.00
  YS02001918YS02001915    1.00   0.00  0.00  0.00  0.98  0.01  0.00  0.00  0.80  0.00
  YS02001920YS02001918    1.00   0.00  0.00  0.00  1.00  0.00  0.00  0.00  0.00  0.00
  YS02001923YS02001920    1.00   0.00  0.00  0.00  1.00  0.00  0.00  0.00  0.96  0.00
  YS02001926YS02001923    1.00   0.00  0.05  0.00  0.03  0.00  0.92  0.00  0.00  0.00
  YS02001929YS02001926    1.00   0.00  0.09  0.00  0.91  0.00  0.00  0.00  0.86  0.00
  YS02006553YS02006556    1.00   0.01  0.00  0.00  0.99  0.00  0.00  0.00  0.03  0.00
  YS02006556YS02006558    1.00   0.00  0.00  0.00  1.00  0.00  0.00  0.00  0.00  0.00
  YS02006558YS02006561    1.00   0.12  0.00  0.00  0.02  0.86  0.00  0.00  0.19  0.00
  YS02006561YS02001783    1.00   0.13  0.00  0.00  0.06  0.82  0.00  0.00  0.73  0.00
  YS02163301YS02001633    1.00   0.00  0.11  0.00  0.89  0.00  0.00  0.00  0.00  0.00
  YS02163601YS02164001    1.00   0.00  0.05  0.00  0.94  0.00  0.00  0.00  0.00  0.00
  YS02164001YS02001641    1.00   0.00  0.05  0.00  0.94  0.00  0.00  0.00  0.06  0.00
  YSB1154YSB6556          1.00   0.08  0.00  0.00  0.92  0.00  0.00  0.00  0.02  0.00
  YSB1171HS02004479       1.00   0.03  0.00  0.00  0.96  0.00  0.00  0.01  0.10  0.00
  YSB1174YSB1171          1.00   0.03  0.03  0.00  0.94  0.00  0.00  0.00  0.00  0.00
  YSB6556YSB1171          1.00   0.03  0.06  0.00  0.92  0.00  0.00  0.00  0.00  0.00
  
  
  *************************
  Conduit Surcharge Summary
  *************************
  
  ----------------------------------------------------------------------------
                                                           Hours        Hours 
                         --------- Hours Full --------   Above Full   Capacity
  Conduit                Both Ends  Upstream  Dnstream   Normal Flow   Limited
  ----------------------------------------------------------------------------
  HS02004478WS02006287        0.22      0.22      0.37      0.01         0.01
  HS02004479HS02004480        0.39      0.39      0.40      0.01         0.01
  HS02004480HS02004478        0.31      0.39      0.31      1.48         0.31
  HS02004770HS02004777        0.31      0.31      0.31      0.12         0.10
  HS02004777HS02004785        0.26      0.26      0.31      0.01         0.01
  HS02004785HS02004788        0.24      0.26      0.24      1.06         0.24
  HS02004788HS02004792        0.24      0.24      0.36      0.01         0.01
  HS02004792HS02004799        0.36      0.36      0.45      0.01         0.01
  HS02004799HS02004480        0.39      0.39      0.45      0.54         0.01
  HS02004802HS02004478        0.32      0.32      0.39      0.01         0.01
  HS02004807HS02004802        0.36      0.36      0.38      0.01         0.01
  HS02004817HS02004807        0.36      0.36      0.85      0.01         0.01
  HS02004817HS02004824        0.24      0.24      0.85      0.01         0.01
  HS02004824HS02004830        0.20      0.20      0.24      0.01         0.01
  HS02004830HS02004837        0.16      0.16      0.20      0.01         0.01
  HS02004837HS02004842        0.16      0.16      0.29      0.01         0.01
  HS02004842HS02004848        0.09      0.09      0.29      0.01         0.01
  HS02004848HS02004852        0.09      0.09      0.12      0.04         0.01
  HS02004852HS02004856        0.12      0.12      0.15      0.04         0.01
  HS02004856HS02004862        0.11      0.11      0.15      0.02         0.01
  HS02004862HS02004870        0.15      0.15      0.17      0.03         0.01
  HS02004870HS02004876        0.17      0.17      0.23      0.01         0.01
  HS02004876HS02004881        0.21      0.23      0.21      1.07         0.21
  HS02004881HS02006253        0.21      0.21      1.18      0.01         0.01
  HS02004901HS02004770        0.31      0.31      0.32      0.01         0.01
  WS02003072WS02003073        0.01      0.01      0.01      2.03         0.01
  WS02004401WS02004402        1.35      1.35      1.37      1.05         1.04
  WS02004402WS02004403        1.37      1.37      1.37      1.35         1.33
  WS02004403WS02004404        1.37      1.37      1.49      0.01         0.01
  WS02004404WS02004405        1.47      1.49      1.47      2.79         1.47
  WS02004405WS02004406        1.44      1.47      1.44      1.58         1.44
  WS02004406WS02004407        0.01      0.01      1.44      0.01         0.01
  WS02004407WS02004409        0.01      0.01      0.61      0.01         0.01
  WS02004409WS02004410        0.59      0.61      0.59      1.16         0.59
  WS02004410WS02004411        0.52      0.59      0.52      1.29         0.52
  WS02004411WS02004412        0.43      0.52      0.43      1.35         0.43
  WS02004412WS02004413        0.43      0.43      0.93      0.01         0.01
  WS02004413WS02003067        0.01      0.01      0.93      0.01         0.01
  WS02006109WS02006110        1.56      1.56      1.77      1.56         0.01
  WS02006110WS02006113        0.88      0.88      1.76      0.26         0.01
  WS02006111WS02006112        0.82      0.82      1.97      0.01         0.01
  WS02006112WS02006115        1.17      1.17      1.60      0.01         0.01
  WS02006113WS02006111        0.85      0.88      0.85      1.00         0.85
  WS02006115WS02006116        1.18      1.18      1.18      1.17         1.15
  WS02006116WS02004401        1.34      1.34      1.35      1.32         1.29
  WS02006228WS02006109        1.74      1.77      1.74      2.11         1.74
  WS02006229WS02006228        1.74      1.75      1.74      2.00         1.74
  WS02006230WS02006229        1.90      1.91      1.90      3.40         1.22
  WS02006231WS02006230        1.46      1.46      1.50      2.77         0.62
  WS02006232WS02006231        1.49      1.49      1.59      0.01         0.09
  WS02006234WS02006232        1.52      1.52      1.59      0.01         0.01
  WS02006235WS02006234        1.51      1.51      1.52      2.34         0.59
  WS02006238WS02006235        1.52      1.52      1.53      0.01         0.19
  WS02006239WS02006238        1.51      1.51      1.52      0.64         0.16
  WS02006240WS02006239        1.49      1.49      1.50      0.61         0.12
  WS02006242WS02006240        1.48      1.48      1.50      1.20         0.56
  WS02006243WS02006242        1.45      1.45      1.50      0.01         0.01
  WS02006245WS02006243        1.41      1.41      1.43      0.11         0.08
  WS02006247WS02006245        1.39      1.42      1.40      1.95         0.69
  WS02006248WS02006247        1.36      1.36      1.40      0.01         0.01
  WS02006249WS02006248        1.34      1.35      1.36      1.09         0.01
  WS02006251WS02006249        1.34      1.34      1.36      1.09         1.02
  WS02006252WS02006251        1.27      1.27      1.31      0.50         0.01
  WS02006253WS02006251        1.34      1.34      1.35      0.47         0.03
  WS02006256WS02006235        2.58      2.59      7.97      0.37         0.01
  WS02006280WS02006229        0.46      0.46      0.58      0.01         0.01
  WS02006284WS02006280        0.39      0.39      0.45      0.01         0.01
  WS02006287WS02006284        0.31      0.31      0.40      0.01         0.01
  YS02001580YS02001583        0.21      0.21      0.27      0.01         0.01
  YS02001583YS02001586        0.22      0.22      0.38      0.01         0.01
  YS02001586YS02001590        0.39      0.39      0.45      0.01         0.01
  YS02001590YS02001593        0.45      0.45      0.46      0.49         0.01
  YS02001593YS02001596        0.46      0.46      0.54      0.01         0.01
  YS02001596YS02001600        0.56      0.56      0.65      0.01         0.01
  YS02001600YS02001601        0.70      0.70      0.98      0.01         0.01
  YS02001601YS02001602        0.86      0.86      1.03      0.66         0.01
  YS02001602YS02001605        0.81      0.81      0.86      1.86         0.01
  YS02001605YS02001607        0.77      0.81      0.77      0.93         0.77
  YS02001607YS02001610        0.40      0.40      0.43      0.01         0.01
  YS02001610YS02001613        0.40      0.40      0.43      0.01         0.01
  YS02001613YS02001616        0.36      0.36      0.40      0.01         0.01
  YS02001616YS02001619        0.35      0.35      0.36      0.01         0.01
  YS02001619YS02001622        0.35      0.35      0.35      0.47         0.34
  YS02001622YS02001625        0.35      0.35      0.50      0.01         0.01
  YS02001625YS02001629        0.29      0.29      0.50      0.01         0.01
  YS02001629YS02163301        0.50      0.50      0.50      0.30         0.23
  YS02001633YS02163601        0.52      0.52      0.54      0.36         0.36
  YS02001641YS02001644        0.43      0.46      0.43      1.10         0.43
  YS02001644YS02001647        0.18      0.18      0.43      0.01         0.01
  YS02001647YS02001649        0.18      0.18      0.32      0.01         0.01
  YS02001649YS02001757        0.31      0.32      0.35      0.16         0.09
  YS02001652YS02001649        0.05      0.05      0.32      0.01         0.01
  YS02001655YS02001652        0.01      0.01      0.02      0.01         0.01
  YS02001754YS02001757        0.01      0.01      0.35      0.01         0.01
  YS02001757CaochengTiaoxuchi        0.34      0.35      6.27      0.15         0.08
  YS02001759YS02001757        0.24      0.24      0.35      0.01         0.01
  YS02001762YS02001759        0.18      0.18      0.24      0.01         0.01
  YS02001765YS02001762        0.11      0.11      0.18      0.01         0.01
  YS02001767YS02001765        0.05      0.05      0.11      0.01         0.01
  YS02001770YS02001767        0.05      0.07      0.05      0.28         0.02
  YS02001774YS02001770        0.01      0.01      0.17      0.01         0.01
  YS02001779YS02001774        0.01      0.01      0.17      0.01         0.01
  YS02001783YS02001784        0.21      0.24      0.21      0.35         0.21
  YS02001784YS02001785        0.05      0.21      0.05      0.53         0.05
  YS02001786YS02001788        0.01      0.05      0.01      0.43         0.01
  YS02001790YS02001791        0.01      0.01      0.01      0.19         0.01
  YS02001793JiankangQianchi        0.01      0.01      7.70      0.01         0.01
  YS02001882YS02001884        0.17      0.17      0.19      0.01         0.01
  YS02001884YS02001887        0.21      0.21      0.22      0.01         0.01
  YS02001887YS02001890        0.24      0.24      0.25      0.01         0.01
  YS02001890YS02001895        0.16      0.16      0.27      0.01         0.01
  YS02001895YS02001898        0.15      0.15      0.16      0.01         0.01
  YS02001898YS02001901        0.17      0.17      0.21      0.01         0.01
  YS02001901YS02001904        0.20      0.20      0.21      0.01         0.01
  YS02001904YS02001907        0.20      0.20      0.42      0.01         0.01
  YS02001907YS02006553        0.54      0.54      0.58      0.01         0.01
  YS02001910YS02001907        0.27      0.27      0.40      0.01         0.01
  YS02001915YS02001910        0.17      0.17      0.27      0.01         0.01
  YS02001918YS02001915        0.01      0.01      0.17      0.01         0.01
  YS02001920YS02001918        0.01      0.01      0.05      0.01         0.01
  YS02001923YS02001920        0.01      0.01      0.05      0.01         0.01
  YS02006553YS02006556        0.34      0.34      0.42      0.01         0.01
  YS02006556YS02006558        0.38      0.38      0.43      0.01         0.01
  YS02006558YS02006561        0.09      0.33      0.09      0.49         0.09
  YS02006561YS02001783        0.01      0.01      0.24      0.01         0.01
  YS02163301YS02001633        0.50      0.50      0.53      0.01         0.01
  YS02163601YS02164001        0.47      0.47      0.54      0.17         0.01
  YS02164001YS02001641        0.46      0.47      0.46      0.56         0.46
  YSB1154YSB6556              0.43      0.43      0.56      0.01         0.01
  YSB1171HS02004479           0.35      0.35      0.56      0.01         0.01
  YSB1174YSB1171              0.48      0.48      0.78      0.01         0.01
  YSB6556YSB1171              0.43      0.43      0.93      0.01         0.01
  
  
  ***************
  Pumping Summary
  ***************
  
  ---------------------------------------------------------------------------------------------------------
                                                  Min       Avg       Max     Total     Power    % Time Off
                        Percent   Number of      Flow      Flow      Flow    Volume     Usage    Pump Curve
  Pump                 Utilized   Start-Ups       LPS       LPS       LPS  10^6 ltr     Kw-hr    Low   High
  ---------------------------------------------------------------------------------------------------------
  CC-R1                   15.96           5      0.00    683.00    683.00     3.139     57.94    0.0    6.5
  CC-R2                    5.10           2      0.00    683.00    683.00     1.002     18.47    0.0   20.4
  CC-S1                   97.92           2      0.00     40.36    200.00     0.829      4.97    0.0    0.0
  CC-S2                   96.08           4      0.00     67.47    200.00     1.020      5.83    0.0    0.0
  JK-R1                   10.67           9      0.00    526.42   1000.00     1.667     18.99    0.0    0.0
  JK-R2                    3.63           5      0.00    442.95   1000.00     0.452      4.29    0.0    0.0
  JK-S                    25.52          10      0.00     37.25    300.00     0.423      6.05    0.0    0.0
  XR-1                    97.91           2      0.00     95.00     95.00     2.679      9.63    0.0    0.0
  XR-2                    93.95           2      0.00     95.00     95.00     2.570      8.79    0.0    0.0
  XR-3                     0.00           1      0.00     95.00     95.00     0.000      0.00    0.0    0.0
  XR-4                     0.00           1      0.00     95.00     95.00     0.000      0.00    0.0    0.0
  

  Analysis begun on:  Sun Jun 25 21:03:35 2023
  Analysis ended on:  Sun Jun 25 21:03:47 2023
  Total elapsed time: 00:00:12