
  OWA STORM WATER MANAGEMENT MODEL - VERSION v5.1.14 (OWA 2022-07-31)
  --------------------------------------------------------------

  WARNING 04: minimum elevation drop used for Conduit WS02004404WS02004405
  WARNING 03: negative offset ignored for Link YS02001904YS02001907
  
  *********************************************************
  NOTE: The summary statistics displayed in this report are
  based on results found at every computational time step,  
  not just on results from each reporting time step.
  *********************************************************
  
  ****************
  Analysis Options
  ****************
  Flow Units ............... LPS
  Process Models:
    Rainfall/Runoff ........ YES
    RDII ................... NO
    Snowmelt ............... NO
    Groundwater ............ NO
    Flow Routing ........... YES
    Ponding Allowed ........ NO
    Water Quality .......... NO
  Infiltration Method ...... HORTON
  Flow Routing Method ...... DYNWAVE
  Surcharge Method ......... EXTRAN
  Starting Date ............ 08/28/2015 08:00:00
  Ending Date .............. 08/28/2015 16:00:00
  Antecedent Dry Days ...... 8.0
  Report Time Step ......... 00:01:00
  Wet Time Step ............ 00:01:00
  Dry Time Step ............ 00:01:00
  Routing Time Step ........ 30.00 sec
  Variable Time Step ....... YES
  Maximum Trials ........... 8
  Number of Threads ........ 2
  Head Tolerance ........... 0.001500 m
  
  
  **************************        Volume         Depth
  Runoff Quantity Continuity     hectare-m            mm
  **************************     ---------       -------
  Initial LID Storage ......         0.072         1.184
  Total Precipitation ......         4.378        72.264
  Evaporation Loss .........         0.000         0.000
  Infiltration Loss ........         0.212         3.500
  Surface Runoff ...........         3.382        55.821
  Final Storage ............         0.857        14.151
  Continuity Error (%) .....        -0.032
  
  
  **************************        Volume        Volume
  Flow Routing Continuity        hectare-m      10^6 ltr
  **************************     ---------     ---------
  Dry Weather Inflow .......         0.630         6.296
  Wet Weather Inflow .......         3.382        33.819
  Groundwater Inflow .......         0.000         0.000
  RDII Inflow ..............         0.000         0.000
  External Inflow ..........         0.105         1.045
  External Outflow .........         2.224        22.239
  Flooding Loss ............         1.663        16.630
  Evaporation Loss .........         0.000         0.000
  Exfiltration Loss ........         0.000         0.000
  Initial Stored Volume ....         0.303         3.031
  Final Stored Volume ......         0.535         5.352
  Continuity Error (%) .....        -0.068
  
  
  *************************
  Highest Continuity Errors
  *************************
  Node YS02001884 (5.17%)
  Node YS02001583 (-4.98%)
  Node YS02001774 (2.09%)
  Node HS02004842 (1.80%)
  
  
  ***************************
  Time-Step Critical Elements
  ***************************
  Link WS02006252WS02006251 (60.71%)
  Link WS02006280WS02006229 (19.17%)
  Link WS02006238WS02006235 (4.31%)
  Link YS02001791YS02001793 (3.92%)
  Link YS02006556YS02006558 (1.81%)
  
  
  ********************************
  Highest Flow Instability Indexes
  ********************************
  Link WS02006113WS02006111 (24)
  Link WS02006256WS02006235 (16)
  Link WS02004404WS02004405 (16)
  Link WS02006238WS02006235 (16)
  Link WS02006229WS02006228 (14)
  
  
  *************************
  Routing Time Step Summary
  *************************
  Minimum Time Step           :     0.02 sec
  Average Time Step           :     2.08 sec
  Maximum Time Step           :     6.46 sec
  Percent in Steady State     :    -0.00
  Average Iterations per Step :     2.98
  Percent Not Converging      :     9.41
  
  
  ***************************
  Subcatchment Runoff Summary
  ***************************
  
  ------------------------------------------------------------------------------------------------------------------------------
                            Total      Total      Total      Total     Imperv       Perv      Total       Total     Peak  Runoff
                           Precip      Runon       Evap      Infil     Runoff     Runoff     Runoff      Runoff   Runoff   Coeff
  Subcatchment                 mm         mm         mm         mm         mm         mm         mm    10^6 ltr      LPS
  ------------------------------------------------------------------------------------------------------------------------------
  sub0                      72.26       0.00       0.00       1.02      65.96       4.04      70.00        0.06    42.33   0.969
  sub1                      72.26       0.00       0.00       1.56      56.53       5.57      62.10        0.41   272.41   0.859
  sub10                     72.26       0.00       0.00       0.99      52.98       3.71      56.69        0.63   424.90   0.784
  sub11                     72.26       0.00       0.00       0.90      49.24       3.46      52.70        0.61   436.06   0.729
  sub12                     72.26       0.00       0.00       1.58      50.06       6.04      56.10        0.49   365.28   0.776
  sub14                     72.26       0.00       0.00       0.98      46.63       3.72      50.35        0.48   337.74   0.697
  sub15                     72.26       0.00       0.00       4.52      41.92      13.80      55.72        0.96   624.85   0.771
  sub16                     72.26       0.00       0.00       4.77      40.89      15.75      56.64        0.59   417.47   0.784
  sub17                     72.26       0.00       0.00       5.12      45.13      16.53      61.66        0.53   364.61   0.853
  sub2                      72.26       0.00       0.00       7.17      41.33      17.59      58.91        0.55   302.80   0.815
  sub22                     72.26       0.00       0.00       8.03      39.13      22.06      61.19        3.87  2374.61   0.847
  sub23                     72.26       0.00       0.00       6.02      40.30      18.10      58.40        2.79  1828.90   0.808
  sub3                      72.26       0.00       0.00       7.70      40.93      16.84      57.77        1.30   658.08   0.799
  sub4                      72.26       0.00       0.00       1.71      55.69       5.32      61.01        1.27   687.92   0.844
  sub5                      72.26       0.00       0.00       0.88      54.69       3.32      58.01        0.66   438.76   0.803
  sub60                     72.26       0.00       0.00       1.41      48.16       5.28      53.44        0.70   504.11   0.740
  sub61                     72.26       0.00       0.00       2.17      48.11       7.87      55.99        1.03   738.21   0.775
  sub62                     72.26       0.00       0.00       0.96      51.29       3.59      54.88        1.50  1016.47   0.759
  sub63                     72.26       0.00       0.00       4.00      41.21      13.15      54.36        1.23   855.43   0.752
  sub64                     72.26       0.00       0.00       1.92      46.92       6.53      53.45        1.28   837.99   0.740
  sub65                     72.26       0.00       0.00       1.76      50.65       5.96      56.61        1.56   980.65   0.783
  sub66                     72.26       0.00       0.00       4.72      39.85      11.90      51.75        2.41  1316.96   0.716
  sub67                     72.26       0.00       0.00       0.95      52.58       3.71      56.30        1.05   772.09   0.779
  sub68                     72.26       0.00       0.00       1.67      46.44       6.04      52.48        1.44  1011.13   0.726
  sub69                     72.26       0.00       0.00       1.55      48.60       7.04      55.64        2.06  1266.52   0.770
  sub7                      72.26       0.00       0.00       1.04      49.98       4.00      53.98        0.18   131.22   0.747
  sub70                     72.26       0.00       0.00       5.26      38.94      14.86      53.79        1.55   763.24   0.744
  sub71                     72.26       0.00       0.00       0.89      46.60       3.25      49.84        1.30   842.86   0.690
  sub72                     72.26       0.00       0.00       0.85      50.34       3.02      53.36        0.73   437.25   0.738
  sub8                      72.26       0.00       0.00       1.02      48.57       3.88      52.45        0.34   237.12   0.726
  sub9                      72.26       0.00       0.00       0.99      47.09       3.76      50.84        0.24   172.82   0.704
  

  ***********************
  LID Performance Summary
  ***********************

  --------------------------------------------------------------------------------------------------------------------
                                         Total      Evap     Infil   Surface    Drain    Initial     Final  Continuity
                                        Inflow      Loss      Loss   Outflow   Outflow   Storage   Storage       Error
  Subcatchment      LID Control             mm        mm        mm        mm        mm        mm        mm           %
  --------------------------------------------------------------------------------------------------------------------
  sub1              GreenRoof            72.26      0.00      0.00      0.00      0.00      7.05     79.37       -0.07
  sub10             GreenRoof            72.26      0.00      0.00      0.00      0.00      7.05     79.37       -0.07
  sub11             GreenRoof            72.26      0.00      0.00      0.00      0.00      7.05     79.37       -0.07
  sub12             GreenRoof            72.26      0.00      0.00      0.00      0.00      7.05     79.37       -0.07
  sub14             GreenRoof            72.26      0.00      0.00      0.00      0.00      7.05     79.37       -0.07
  sub15             GreenRoof            72.26      0.00      0.00      0.00      0.00      7.05     79.37       -0.07
  sub16             GreenRoof            72.26      0.00      0.00      0.00      0.00      7.05     79.37       -0.07
  sub17             GreenRoof            72.26      0.00      0.00      0.00      0.00      7.05     79.37       -0.07
  sub2              GreenRoof            72.26      0.00      0.00      0.00      0.00      7.05     79.37       -0.07
  sub22             GreenRoof            72.26      0.00      0.00      0.00      0.00      7.05     79.37       -0.07
  sub23             GreenRoof            72.26      0.00      0.00      0.00      0.00      7.05     79.37       -0.07
  sub3              GreenRoof            72.26      0.00      0.00      0.00      0.00      7.05     79.37       -0.07
  sub4              GreenRoof            72.26      0.00      0.00      0.00      0.00      7.05     79.37       -0.07
  sub5              GreenRoof            72.26      0.00      0.00      0.00      0.00      7.05     79.37       -0.07
  sub60             GreenRoof            72.26      0.00      0.00      0.00      0.00      7.05     79.37       -0.07
  sub61             GreenRoof            72.26      0.00      0.00      0.00      0.00      7.05     79.37       -0.07
  sub62             GreenRoof            72.26      0.00      0.00      0.00      0.00      7.05     79.37       -0.07
  sub63             GreenRoof            72.26      0.00      0.00      0.00      0.00      7.05     79.37       -0.07
  sub64             GreenRoof            72.26      0.00      0.00      0.00      0.00      7.05     79.37       -0.07
  sub65             GreenRoof            72.26      0.00      0.00      0.00      0.00      7.05     79.37       -0.07
  sub66             GreenRoof            72.26      0.00      0.00      0.00      0.00      7.05     79.37       -0.07
  sub67             GreenRoof            72.26      0.00      0.00      0.00      0.00      7.05     79.37       -0.07
  sub68             GreenRoof            72.26      0.00      0.00      0.00      0.00      7.05     79.37       -0.07
  sub69             GreenRoof            72.26      0.00      0.00      0.00      0.00      7.05     79.37       -0.07
  sub7              GreenRoof            72.26      0.00      0.00      0.00      0.00      7.05     79.37       -0.07
  sub70             GreenRoof            72.26      0.00      0.00      0.00      0.00      7.05     79.37       -0.07
  sub71             GreenRoof            72.26      0.00      0.00      0.00      0.00      7.05     79.37       -0.07
  sub72             GreenRoof            72.26      0.00      0.00      0.00      0.00      7.05     79.37       -0.07
  sub8              GreenRoof            72.26      0.00      0.00      0.00      0.00      7.05     79.37       -0.07
  sub9              GreenRoof            72.26      0.00      0.00      0.00      0.00      7.05     79.37       -0.07
  
  ******************
  Node Depth Summary
  ******************
  
  ---------------------------------------------------------------------------------
                                 Average  Maximum  Maximum  Time of Max    Reported
                                   Depth    Depth      HGL   Occurrence   Max Depth
  Node                 Type       Meters   Meters   Meters  days hr:min      Meters
  ---------------------------------------------------------------------------------
  HS02004478           JUNCTION     0.21     1.62    10.84     0  02:16        1.59
  HS02004479           JUNCTION     0.29     1.74    10.94     0  02:16        1.67
  HS02004480           JUNCTION     0.25     1.71    10.95     0  02:16        1.64
  HS02004770           JUNCTION     0.26     1.42    11.25     0  02:12        1.42
  HS02004777           JUNCTION     0.28     1.48    11.28     0  02:12        1.46
  HS02004785           JUNCTION     0.18     1.47    11.37     0  02:12        1.36
  HS02004788           JUNCTION     0.14     1.39    11.29     0  02:12        1.36
  HS02004792           JUNCTION     0.20     1.60    11.12     0  02:15        1.60
  HS02004799           JUNCTION     0.31     1.76    10.97     0  02:16        1.76
  HS02004802           JUNCTION     0.31     1.80    10.93     0  02:16        1.80
  HS02004807           JUNCTION     0.28     1.92    11.09     0  02:22        1.92
  HS02004817           JUNCTION     0.59     2.41    11.26     0  02:25        2.40
  HS02004824           JUNCTION     0.16     2.01    11.41     0  02:24        2.01
  HS02004830           JUNCTION     0.16     1.99    11.46     0  02:24        1.98
  HS02004837           JUNCTION     0.13     1.95    11.53     0  02:16        1.92
  HS02004842           JUNCTION     0.43     2.22    11.49     0  02:16        2.22
  HS02004848           JUNCTION     0.11     1.92    11.52     0  02:16        1.91
  HS02004852           JUNCTION     0.12     1.97    11.48     0  02:24        1.96
  HS02004856           JUNCTION     0.18     2.03    11.45     0  02:24        2.02
  HS02004862           JUNCTION     0.13     2.00    11.38     0  02:24        2.00
  HS02004870           JUNCTION     0.13     2.08    11.37     0  02:15        1.99
  HS02004876           JUNCTION     0.17     2.08    11.11     0  02:25        2.08
  HS02004881           JUNCTION     0.11     1.83    10.85     0  02:25        1.82
  HS02004901           JUNCTION     0.26     1.42    11.24     0  02:12        1.42
  WS02001211           JUNCTION     0.64     0.82     5.66     0  02:28        0.82
  WS02001212           JUNCTION     0.38     0.58     5.64     0  02:28        0.58
  WS02001213           JUNCTION     0.59     0.88     5.64     0  02:27        0.88
  WS02003059           JUNCTION     0.66     0.94     5.63     0  02:26        0.94
  WS02003060           JUNCTION     0.37     0.69     5.62     0  02:26        0.69
  WS02003066           JUNCTION     0.22     0.46     6.01     0  02:25        0.46
  WS02003067           JUNCTION     0.52     0.89     6.21     0  02:24        0.89
  WS02003069           JUNCTION     0.42     0.79     5.37     0  02:26        0.79
  WS02003072           JUNCTION     0.48     0.82     5.19     0  02:27        0.82
  WS02003073           JUNCTION     0.29     0.52     4.58     0  02:27        0.52
  WS02004138           JUNCTION     0.13     0.14     7.39     0  00:32        0.14
  WS02004139           JUNCTION     0.58     0.75     5.66     0  02:28        0.75
  WS02004401           JUNCTION     0.73     1.94     7.94     0  02:25        1.94
  WS02004402           JUNCTION     0.75     1.88     7.84     0  02:25        1.88
  WS02004403           JUNCTION     0.76     1.80     7.73     0  02:25        1.80
  WS02004404           JUNCTION     0.83     1.80     7.65     0  02:25        1.80
  WS02004405           JUNCTION     0.82     1.76     7.61     0  02:25        1.74
  WS02004406           JUNCTION     0.81     1.63     7.46     0  02:25        1.62
  WS02004407           JUNCTION     0.25     0.98     7.29     0  02:25        0.98
  WS02004409           JUNCTION     0.50     1.42     7.19     0  02:25        1.40
  WS02004410           JUNCTION     0.51     1.32     7.04     0  02:25        1.32
  WS02004411           JUNCTION     0.51     1.23     6.91     0  02:25        1.22
  WS02004412           JUNCTION     0.52     1.12     6.76     0  02:25        1.12
  WS02004413           JUNCTION     0.66     1.15     6.62     0  02:25        1.15
  WS02006109           JUNCTION     0.92     2.64     9.26     0  02:13        2.64
  WS02006110           JUNCTION     0.87     2.42     9.00     0  02:25        2.40
  WS02006111           JUNCTION     0.39     1.81     8.52     0  02:24        1.81
  WS02006112           JUNCTION     0.94     2.47     8.35     0  02:25        2.46
  WS02006113           JUNCTION     0.46     1.87     8.77     0  02:25        1.87
  WS02006115           JUNCTION     0.65     2.05     8.19     0  02:25        2.05
  WS02006116           JUNCTION     0.72     2.03     8.07     0  02:25        2.03
  WS02006228           JUNCTION     0.96     3.03     9.68     0  02:16        3.02
  WS02006229           JUNCTION     0.97     3.25     9.94     0  02:16        3.22
  WS02006230           JUNCTION     0.89     2.65     9.39     0  02:08        2.65
  WS02006231           JUNCTION     0.63     2.19     9.31     0  02:19        2.19
  WS02006232           JUNCTION     0.72     2.18     9.22     0  02:07        2.18
  WS02006234           JUNCTION     0.60     1.96     9.12     0  02:06        1.96
  WS02006235           JUNCTION     0.61     1.94     9.11     0  02:32        1.93
  WS02006238           JUNCTION     0.63     1.95     9.09     0  02:32        1.93
  WS02006239           JUNCTION     0.57     1.80     9.01     0  02:33        1.80
  WS02006240           JUNCTION     0.52     1.64     8.93     0  02:44        1.64
  WS02006242           JUNCTION     0.55     1.55     8.82     0  01:51        1.55
  WS02006243           JUNCTION     0.45     1.48     8.90     0  01:51        1.37
  WS02006245           JUNCTION     0.43     1.56     9.04     0  01:51        1.29
  WS02006247           JUNCTION     0.44     1.47     8.97     0  01:51        1.23
  WS02006248           JUNCTION     0.39     1.10     8.69     0  01:51        1.10
  WS02006249           JUNCTION     0.41     1.09     8.69     0  01:51        1.09
  WS02006251           JUNCTION     0.49     2.17     9.84     0  02:15        2.15
  WS02006252           JUNCTION     0.35     1.50     9.74     0  00:00        1.50
  WS02006253           JUNCTION     0.56     3.10    10.75     0  02:25        3.10
  WS02006256           JUNCTION     0.93     2.35     9.28     0  00:00        2.35
  WS02006280           JUNCTION     0.28     1.77    10.04     0  02:16        1.74
  WS02006284           JUNCTION     0.54     1.99    10.39     0  02:16        1.95
  WS02006287           JUNCTION     0.27     1.78    10.73     0  02:16        1.74
  WSF200               JUNCTION     0.21     0.53     5.76     0  02:25        0.53
  YS02001580           JUNCTION     0.07     1.05     9.59     0  02:12        0.77
  YS02001583           JUNCTION     0.10     0.98     9.47     0  02:12        0.82
  YS02001586           JUNCTION     0.17     1.13     9.30     0  02:12        1.13
  YS02001590           JUNCTION     0.26     1.40     9.26     0  02:12        1.37
  YS02001593           JUNCTION     0.19     1.33     9.19     0  02:12        1.30
  YS02001596           JUNCTION     0.26     1.68     9.10     0  02:12        1.66
  YS02001600           JUNCTION     0.32     1.87     9.00     0  02:12        1.86
  YS02001601           JUNCTION     0.51     2.06     8.90     0  02:11        2.06
  YS02001602           JUNCTION     0.43     1.87     8.77     0  02:14        1.87
  YS02001605           JUNCTION     0.40     1.78     8.68     0  02:20        1.78
  YS02001607           JUNCTION     0.40     1.66     8.51     0  02:33        1.66
  YS02001610           JUNCTION     0.44     1.68     8.48     0  02:15        1.68
  YS02001613           JUNCTION     0.40     1.66     8.50     0  02:23        1.66
  YS02001616           JUNCTION     0.33     1.60     8.52     0  02:25        1.60
  YS02001619           JUNCTION     0.31     1.61     8.54     0  02:25        1.61
  YS02001622           JUNCTION     0.30     1.57     8.48     0  02:25        1.57
  YS02001625           JUNCTION     0.56     1.78     8.38     0  02:15        1.78
  YS02001629           JUNCTION     0.43     1.85     8.40     0  02:16        1.85
  YS02001633           JUNCTION     0.51     2.03     8.48     0  02:18        2.03
  YS02001641           JUNCTION     0.50     1.97     8.41     0  02:18        1.97
  YS02001644           JUNCTION     0.49     1.92     8.35     0  02:18        1.92
  YS02001647           JUNCTION     0.29     1.81     8.42     0  02:23        1.81
  YS02001649           JUNCTION     0.43     2.05     8.44     0  02:23        2.05
  YS02001652           JUNCTION     0.26     2.16     8.76     0  02:16        2.16
  YS02001655           JUNCTION     0.16     2.20     9.05     0  02:16        2.20
  YS02001658           JUNCTION     0.12     1.78     8.92     0  02:18        1.48
  YS02001661           JUNCTION     0.15     1.29     8.70     0  02:22        1.22
  YS02001664           JUNCTION     0.05     0.57     8.49     0  02:24        0.55
  YS02001745           JUNCTION     0.06     0.83     8.35     0  02:24        0.82
  YS02001748           JUNCTION     0.11     1.31     8.39     0  02:20        1.26
  YS02001751           JUNCTION     0.14     1.46     8.34     0  02:24        1.45
  YS02001754           JUNCTION     0.23     1.73     8.34     0  02:23        1.73
  YS02001757           JUNCTION     0.52     2.08     8.35     0  02:23        2.08
  YS02001759           JUNCTION     0.43     2.04     8.41     0  02:23        2.04
  YS02001762           JUNCTION     0.41     2.00     8.40     0  02:24        1.99
  YS02001765           JUNCTION     0.37     1.96     8.41     0  02:24        1.95
  YS02001767           JUNCTION     0.34     1.93     8.42     0  02:24        1.92
  YS02001770           JUNCTION     0.34     1.93     8.43     0  02:24        1.93
  YS02001774           JUNCTION     0.41     1.98     8.41     0  02:24        1.98
  YS02001779           JUNCTION     0.18     1.68     8.37     0  02:15        1.68
  YS02001783           JUNCTION     0.23     1.69     7.83     0  02:34        1.47
  YS02001784           JUNCTION     0.25     1.67     7.74     0  02:34        1.42
  YS02001786           JUNCTION     0.22     1.51     7.54     0  02:34        1.26
  YS02001788           JUNCTION     0.17     1.49     7.47     0  02:34        1.13
  YS02001790           JUNCTION     0.22     1.52     7.17     0  02:34        1.29
  YS02001791           JUNCTION     0.19     1.39     6.86     0  02:34        1.27
  YS02001793           JUNCTION     0.22     1.80     6.63     0  02:35        1.80
  YS02001882           JUNCTION     0.27     1.65     8.37     0  02:18        1.64
  YS02001884           JUNCTION     0.36     1.74     8.36     0  02:24        1.74
  YS02001887           JUNCTION     0.43     1.82     8.36     0  02:23        1.82
  YS02001890           JUNCTION     0.46     1.81     8.32     0  02:18        1.81
  YS02001895           JUNCTION     0.24     1.57     8.31     0  02:25        1.57
  YS02001898           JUNCTION     0.25     1.57     8.30     0  02:18        1.57
  YS02001901           JUNCTION     0.36     1.68     8.29     0  02:18        1.68
  YS02001904           JUNCTION     0.34     1.64     8.27     0  02:18        1.64
  YS02001907           JUNCTION     0.65     1.96     8.25     0  02:18        1.96
  YS02001910           JUNCTION     0.45     1.97     8.48     0  02:19        1.87
  YS02001915           JUNCTION     0.27     1.93     8.64     0  02:19        1.74
  YS02001918           JUNCTION     0.14     1.81     8.88     0  02:19        1.41
  YS02001920           JUNCTION     0.21     2.05     9.06     0  02:19        1.48
  YS02001923           JUNCTION     0.10     1.93     9.19     0  02:19        1.23
  YS02001926           JUNCTION     0.14     1.83     9.27     0  02:19        1.06
  YS02001929           JUNCTION     0.07     1.78     9.47     0  02:19        0.83
  YS02006553           JUNCTION     0.66     2.02     8.30     0  02:34        1.98
  YS02006556           JUNCTION     0.63     2.05     8.36     0  02:34        1.95
  YS02006558           JUNCTION     0.67     2.11     8.38     0  02:34        2.00
  YS02006561           JUNCTION     0.14     1.26     7.92     0  02:34        1.08
  YS02163301           JUNCTION     0.45     1.92     8.44     0  02:18        1.92
  YS02163601           JUNCTION     0.55     2.05     8.44     0  02:18        2.05
  YS02164001           JUNCTION     0.48     1.97     8.43     0  02:18        1.97
  YSB1154              JUNCTION     0.42     1.94    11.00     0  02:23        1.94
  YSB1171              JUNCTION     0.57     1.95    10.85     0  02:16        1.95
  YSB1174              JUNCTION     0.37     1.81    10.92     0  02:23        1.80
  YSB6556              JUNCTION     0.32     1.78    10.95     0  02:16        1.75
  CC-1                 OUTFALL      0.00     0.00     0.00     0  00:00        0.00
  CC-2                 OUTFALL      0.00     0.00     0.00     0  00:00        0.00
  JK-1                 OUTFALL      0.00     0.00     0.00     0  00:00        0.00
  JK-2                 OUTFALL      0.00     0.00     0.00     0  00:00        0.00
  WSC                  OUTFALL      0.29     0.52     1.19     0  02:28        0.52
  CC-storage           STORAGE      1.14     1.81     7.31     0  02:42        1.81
  JK-storage           STORAGE      3.15     5.80     6.60     0  02:34        5.80
  XR-storage           STORAGE      7.94     9.26     7.26     0  08:00        9.26
  
  
  *******************
  Node Inflow Summary
  *******************
  
  -------------------------------------------------------------------------------------------------
                                  Maximum  Maximum                  Lateral       Total        Flow
                                  Lateral    Total  Time of Max      Inflow      Inflow     Balance
                                   Inflow   Inflow   Occurrence      Volume      Volume       Error
  Node                 Type           LPS      LPS  days hr:min    10^6 ltr    10^6 ltr     Percent
  -------------------------------------------------------------------------------------------------
  HS02004478           JUNCTION      0.00  2305.81     0  02:23           0        8.78      -0.006
  HS02004479           JUNCTION      0.00   387.17     0  02:18           0       0.825       0.101
  HS02004480           JUNCTION      0.00  2052.59     0  02:16           0        6.61       0.033
  HS02004770           JUNCTION   1828.90  1828.90     0  02:25        2.79        3.02       0.096
  HS02004777           JUNCTION      0.03   692.11     0  02:12    0.000864        1.93       0.265
  HS02004785           JUNCTION      0.15   704.32     0  02:12     0.00432        1.93       0.021
  HS02004788           JUNCTION    626.52   847.01     0  02:13        1.01        2.93       0.012
  HS02004792           JUNCTION   2374.89  3216.92     0  02:25        3.87        6.81       0.001
  HS02004799           JUNCTION    337.74  1743.00     0  02:13       0.479        5.95       0.047
  HS02004802           JUNCTION      0.00  1233.88     0  02:27           0         2.3       0.172
  HS02004807           JUNCTION    436.06  1619.26     0  02:25       0.612        2.42       0.172
  HS02004817           JUNCTION      0.60  1196.28     0  02:26      0.0173        1.86       0.902
  HS02004824           JUNCTION    687.97  1225.13     0  02:25        1.27        2.04       0.020
  HS02004830           JUNCTION      0.15   553.19     0  02:13     0.00432       0.956       0.121
  HS02004837           JUNCTION    431.25   730.49     0  02:13       0.808        1.24       0.073
  HS02004842           JUNCTION      0.00   728.58     0  02:16           0       0.731       1.828
  HS02004848           JUNCTION    658.08   993.71     0  02:16         1.3        1.83       0.002
  HS02004852           JUNCTION      0.00   990.96     0  02:16           0        1.65       0.021
  HS02004856           JUNCTION    172.82  1026.38     0  02:16       0.245        1.89       0.073
  HS02004862           JUNCTION    303.00  1099.54     0  02:16       0.555        2.45       0.029
  HS02004870           JUNCTION    237.12  1240.52     0  02:24       0.335        2.78       0.014
  HS02004876           JUNCTION    272.41  1509.85     0  02:25       0.413        3.19       0.018
  HS02004881           JUNCTION    131.22  1640.87     0  02:25       0.182        3.37       0.019
  HS02004901           JUNCTION    417.47   682.63     0  02:25       0.593       0.935       0.178
  WS02001211           JUNCTION      7.35   203.26     0  03:32       0.212        5.44       0.611
  WS02001212           JUNCTION      0.00   208.79     0  03:32           0        5.41       0.290
  WS02001213           JUNCTION      0.00   212.87     0  03:33           0        5.39       0.332
  WS02003059           JUNCTION      0.00   219.89     0  03:33           0        5.38       0.595
  WS02003060           JUNCTION     16.53  1527.86     0  02:26       0.476          14       0.105
  WS02003066           JUNCTION      0.00  1330.00     0  02:25           0        8.22       0.018
  WS02003067           JUNCTION      0.00  1329.36     0  02:25           0        8.22       0.054
  WS02003069           JUNCTION      0.32  1527.97     0  02:26     0.00922          14       0.110
  WS02003072           JUNCTION      0.00  1527.74     0  02:27           0          14       0.149
  WS02003073           JUNCTION      1.82  1529.90     0  02:27      0.0524          14       0.155
  WS02004138           JUNCTION      0.00   380.00     0  00:00           0        5.25       0.054
  WS02004139           JUNCTION      0.32   190.32     0  00:32     0.00924        5.26       0.509
  WS02004401           JUNCTION      0.00  1330.41     0  02:25           0        8.33       0.127
  WS02004402           JUNCTION      0.00  1330.95     0  02:25           0        8.32       0.129
  WS02004403           JUNCTION      0.00  1330.96     0  02:25           0         8.3       0.126
  WS02004404           JUNCTION      0.16  1331.01     0  02:25     0.00467         8.3       0.105
  WS02004405           JUNCTION      0.04  1332.22     0  02:25      0.0011        8.29       0.152
  WS02004406           JUNCTION      0.00  1332.02     0  02:25           0        8.28       0.258
  WS02004407           JUNCTION      0.00  1332.51     0  02:25           0        8.26       0.019
  WS02004409           JUNCTION      0.00  1329.36     0  02:25           0        8.26       0.040
  WS02004410           JUNCTION      0.00  1329.38     0  02:25           0        8.25       0.059
  WS02004411           JUNCTION      0.00  1329.78     0  02:25           0        8.25       0.075
  WS02004412           JUNCTION      0.00  1329.86     0  02:25           0        8.24       0.098
  WS02004413           JUNCTION      0.00  1329.50     0  02:25           0        8.23       0.168
  WS02006109           JUNCTION      1.23  1289.65     0  02:23      0.0354        8.11       0.129
  WS02006110           JUNCTION      0.00  1121.98     0  02:38           0        7.84       0.100
  WS02006111           JUNCTION      0.00  1121.95     0  02:38           0        7.83       0.010
  WS02006112           JUNCTION    364.61  1330.37     0  02:25       0.529        8.36       0.217
  WS02006113           JUNCTION      0.00  1122.00     0  02:38           0        7.83       0.024
  WS02006115           JUNCTION      0.00  1330.27     0  02:24           0        8.34       0.080
  WS02006116           JUNCTION      0.00  1330.07     0  02:24           0        8.33       0.075
  WS02006228           JUNCTION      0.00  1288.53     0  02:23           0        8.08       0.070
  WS02006229           JUNCTION      0.00  2305.62     0  02:23           0        10.4       0.075
  WS02006230           JUNCTION     10.28  1027.15     0  02:23       0.296        4.03       0.237
  WS02006231           JUNCTION      0.00   469.88     0  03:25           0        2.82      -0.155
  WS02006232           JUNCTION      0.00   469.82     0  03:25           0        2.82       0.241
  WS02006234           JUNCTION      0.00   469.73     0  03:25           0        2.81      -0.171
  WS02006235           JUNCTION      0.00   469.64     0  03:25           0        2.83       0.223
  WS02006238           JUNCTION      0.00   416.13     0  02:32           0        2.46      -0.096
  WS02006239           JUNCTION      0.00   415.38     0  02:33           0        2.43      -0.088
  WS02006240           JUNCTION      0.00   415.21     0  02:33           0         2.4       0.020
  WS02006242           JUNCTION      0.00   415.36     0  02:33           0        2.38       0.018
  WS02006243           JUNCTION      0.00   376.07     0  03:25           0        1.99       0.078
  WS02006245           JUNCTION      0.00   383.09     0  00:05           0        1.99       0.366
  WS02006247           JUNCTION      0.00   385.59     0  00:04           0        1.99       0.022
  WS02006248           JUNCTION      0.00   390.96     0  00:04           0        2.25      -0.010
  WS02006249           JUNCTION      0.00  1373.38     0  02:25           0        5.26       0.114
  WS02006251           JUNCTION      0.08  1683.71     0  02:25     0.00222        5.39      -0.002
  WS02006252           JUNCTION      0.00   512.80     0  02:25           0        2.36      -0.033
  WS02006253           JUNCTION     42.33  1683.07     0  02:24      0.0567        3.45       0.002
  WS02006256           JUNCTION      0.00   300.00     0  00:00           0        1.16      -0.295
  WS02006280           JUNCTION      0.00  2304.61     0  02:23           0        8.75       0.002
  WS02006284           JUNCTION      0.10  2305.53     0  02:23     0.00275        8.75       0.011
  WS02006287           JUNCTION      0.00  2305.64     0  02:23           0        8.75       0.011
  WSF200               JUNCTION      0.00  1330.08     0  02:25           0        8.21       0.010
  YS02001580           JUNCTION      0.00    73.99     0  02:11           0     0.00412       2.966
  YS02001583           JUNCTION      0.00   121.21     0  02:11           0      0.0152      -4.746
  YS02001586           JUNCTION    763.24   763.24     0  02:26        1.55        1.57       0.064
  YS02001590           JUNCTION      0.00   318.03     0  02:37           0        1.25      -0.025
  YS02001593           JUNCTION      0.00   318.09     0  02:37           0        1.25      -0.001
  YS02001596           JUNCTION      0.00   318.07     0  02:31           0        1.25      -0.007
  YS02001600           JUNCTION      0.00   318.12     0  02:18           0        1.25       0.011
  YS02001601           JUNCTION   1266.52  1583.99     0  02:25        2.06        3.31       0.020
  YS02001602           JUNCTION      0.00   485.88     0  02:11           0        2.18       0.015
  YS02001605           JUNCTION      0.00   486.40     0  02:11           0        2.07       0.012
  YS02001607           JUNCTION      0.00   486.31     0  02:11           0        2.07       0.091
  YS02001610           JUNCTION      0.00   717.97     0  02:26           0        2.23       0.098
  YS02001613           JUNCTION      0.00   491.64     0  02:10           0        1.84       0.085
  YS02001616           JUNCTION      0.00   485.94     0  02:10           0        1.84       0.024
  YS02001619           JUNCTION   1316.96  1316.96     0  02:26        2.41        4.09       0.003
  YS02001622           JUNCTION      0.00   955.53     0  02:25           0        3.92       0.001
  YS02001625           JUNCTION      0.00  1358.50     0  02:25           0        4.11       0.228
  YS02001629           JUNCTION      0.00   888.53     0  02:13           0        3.19       0.023
  YS02001633           JUNCTION    980.85  1230.62     0  02:14        1.56        4.56       0.111
  YS02001641           JUNCTION      0.00  1233.83     0  02:14           0        4.36       0.090
  YS02001644           JUNCTION    838.02  1544.83     0  02:14        1.29        5.64       0.083
  YS02001647           JUNCTION      0.00  1544.85     0  02:14           0        5.27       0.020
  YS02001649           JUNCTION      0.00  1753.89     0  02:16           0        6.51       0.130
  YS02001652           JUNCTION      0.00   877.69     0  02:25           0        1.24      -0.028
  YS02001655           JUNCTION      0.15   877.60     0  02:25     0.00443        1.24       0.007
  YS02001658           JUNCTION      0.00   877.73     0  02:25           0        1.23      -0.000
  YS02001661           JUNCTION      0.00   876.09     0  02:25           0        1.23      -0.016
  YS02001664           JUNCTION    855.43   855.43     0  02:25        1.23        1.23      -0.007
  YS02001745           JUNCTION    504.12   504.12     0  02:25       0.702       0.702       0.152
  YS02001748           JUNCTION      0.04   507.95     0  02:25      0.0013       0.704      -0.244
  YS02001751           JUNCTION      0.01   508.59     0  02:25    0.000317       0.712       0.109
  YS02001754           JUNCTION      0.26   508.39     0  02:25     0.00749       0.734      -0.058
  YS02001757           JUNCTION      0.00  2931.91     0  02:23           0        9.62       0.398
  YS02001759           JUNCTION    738.25  1229.08     0  02:24        1.03        2.42       0.257
  YS02001762           JUNCTION      0.00   655.16     0  02:21           0         1.4       0.356
  YS02001765           JUNCTION      0.00   654.23     0  02:21           0        1.39       0.323
  YS02001767           JUNCTION      0.54   655.12     0  02:21      0.0154        1.39       0.355
  YS02001770           JUNCTION   1016.63  1016.63     0  02:25        1.51        1.57       0.230
  YS02001774           JUNCTION      0.00   543.56     0  02:25           0        0.23       2.139
  YS02001779           JUNCTION      0.01   544.55     0  02:25    0.000144       0.175      -0.260
  YS02001783           JUNCTION      0.00  1164.10     0  02:23           0        3.68       0.009
  YS02001784           JUNCTION      1.06  1165.16     0  02:23      0.0305        3.71       0.019
  YS02001786           JUNCTION      0.06  1165.10     0  02:23     0.00162        3.71       0.019
  YS02001788           JUNCTION      0.07  1165.69     0  02:23     0.00204        3.72       0.004
  YS02001790           JUNCTION      0.15  1173.38     0  02:22     0.00446        3.72       0.015
  YS02001791           JUNCTION      0.00  1296.21     0  02:24           0        3.72      -0.038
  YS02001793           JUNCTION      0.00  1239.30     0  02:26           0        3.72      -0.017
  YS02001882           JUNCTION      0.00    37.81     0  02:16           0      0.0127       5.704
  YS02001884           JUNCTION      0.00    46.80     0  02:15           0      0.0486       5.447
  YS02001887           JUNCTION    772.54   773.54     0  02:25        1.06        1.09       0.405
  YS02001890           JUNCTION      0.00   773.60     0  02:25           0        1.05       0.487
  YS02001895           JUNCTION      0.00   517.58     0  02:26           0       0.988       0.151
  YS02001898           JUNCTION      0.00   517.54     0  02:27           0       0.986       0.018
  YS02001901           JUNCTION      0.00   517.72     0  02:26           0       0.989       0.325
  YS02001904           JUNCTION      0.00   517.52     0  02:27           0       0.993       0.279
  YS02001907           JUNCTION      0.00  1799.15     0  02:25           0        3.11       0.574
  YS02001910           JUNCTION      0.00  1283.06     0  02:25           0        2.12       0.336
  YS02001915           JUNCTION    842.88  1282.97     0  02:25         1.3        2.15       0.073
  YS02001918           JUNCTION      0.00   459.39     0  02:20           0       0.862       0.011
  YS02001920           JUNCTION      2.87   457.96     0  02:20      0.0827       0.849       0.105
  YS02001923           JUNCTION      0.04   453.19     0  02:25     0.00109       0.755      -0.049
  YS02001926           JUNCTION      0.05   451.87     0  02:25      0.0015       0.741       0.052
  YS02001929           JUNCTION    437.25   437.25     0  02:25       0.734       0.734      -0.115
  YS02006553           JUNCTION      0.00   790.51     0  02:34           0        2.26       0.525
  YS02006556           JUNCTION      0.00   792.34     0  02:34           0        2.27       0.355
  YS02006558           JUNCTION   1012.01  1164.80     0  02:23        1.47        3.71       0.093
  YS02006561           JUNCTION      0.00  1163.86     0  02:23           0        3.68       0.000
  YS02163301           JUNCTION      0.00   885.73     0  02:13           0         3.2       0.087
  YS02163601           JUNCTION      0.11  1231.17     0  02:14     0.00317        4.36       0.150
  YS02164001           JUNCTION      0.00  1231.77     0  02:14           0        4.36       0.079
  YSB1154              JUNCTION    438.76   438.76     0  02:25       0.657       0.658       0.221
  YSB1171              JUNCTION      0.00  1036.44     0  02:25           0        1.25       0.511
  YSB1174              JUNCTION    365.28   365.28     0  02:25        0.49       0.491       0.265
  YSB6556              JUNCTION      0.00   439.04     0  02:25           0       0.659       0.193
  CC-1                 OUTFALL       0.00   683.00     0  00:00           0        3.64       0.000
  CC-2                 OUTFALL       0.00   683.00     0  00:00           0        2.55       0.000
  JK-1                 OUTFALL       0.00  1000.00     0  00:00           0        1.55       0.000
  JK-2                 OUTFALL       0.00  1000.00     0  00:00           0       0.489       0.000
  WSC                  OUTFALL       0.00  1530.57     0  02:28           0          14       0.000
  CC-storage           STORAGE       0.00  2935.78     0  02:23           0        11.8       0.128
  JK-storage           STORAGE       0.00  1245.67     0  02:27           0        3.87       0.033
  XR-storage           STORAGE     200.00   200.00     0  00:00        5.76        6.36       0.001
  
  
  **********************
  Node Surcharge Summary
  **********************
  
  Surcharging occurs when water rises above the top of the highest conduit.
  ---------------------------------------------------------------------
                                               Max. Height   Min. Depth
                                   Hours       Above Crown    Below Rim
  Node                 Type      Surcharged         Meters       Meters
  ---------------------------------------------------------------------
  HS02004478           JUNCTION        0.48          0.696        0.244
  HS02004479           JUNCTION        0.61          0.935        0.115
  HS02004480           JUNCTION        0.66          1.004        0.096
  HS02004770           JUNCTION        0.56          0.720        0.000
  HS02004777           JUNCTION        0.56          0.780        0.000
  HS02004785           JUNCTION        0.51          0.766        0.024
  HS02004788           JUNCTION        0.50          0.693        0.027
  HS02004792           JUNCTION        0.63          0.900        0.000
  HS02004799           JUNCTION        0.77          1.060        0.000
  HS02004802           JUNCTION        0.67          1.093        0.117
  HS02004807           JUNCTION        0.64          1.220        0.000
  HS02004817           JUNCTION        1.25          1.712        0.028
  HS02004824           JUNCTION        0.50          1.310        0.000
  HS02004830           JUNCTION        0.47          1.287        0.043
  HS02004837           JUNCTION        0.43          1.250        0.090
  HS02004842           JUNCTION        0.57          1.520        0.000
  HS02004848           JUNCTION        0.39          1.221        0.149
  HS02004852           JUNCTION        0.41          1.266        0.154
  HS02004856           JUNCTION        0.41          1.256        0.044
  HS02004862           JUNCTION        0.44          1.300        0.000
  HS02004870           JUNCTION        0.46          1.379        0.021
  HS02004876           JUNCTION        0.52          1.381        0.179
  HS02004881           JUNCTION        0.50          1.125        0.325
  HS02004901           JUNCTION        0.56          0.720        0.000
  WS02004401           JUNCTION        1.62          0.945        0.715
  WS02004402           JUNCTION        1.63          0.882        0.858
  WS02004403           JUNCTION        1.63          0.796        1.234
  WS02004404           JUNCTION        1.71          0.804        1.976
  WS02004405           JUNCTION        1.70          0.755        2.045
  WS02004406           JUNCTION        1.68          0.629        1.821
  WS02004409           JUNCTION        1.10          0.420        1.940
  WS02004410           JUNCTION        1.00          0.321        2.219
  WS02004411           JUNCTION        0.90          0.227        2.303
  WS02004412           JUNCTION        0.79          0.118        2.192
  WS02004413           JUNCTION        1.29          0.153        2.047
  WS02006109           JUNCTION        2.07          1.820        0.000
  WS02006110           JUNCTION        1.79          1.509        0.341
  WS02006111           JUNCTION        1.24          1.005        0.865
  WS02006112           JUNCTION        1.88          1.467        0.213
  WS02006113           JUNCTION        1.25          1.073        0.857
  WS02006115           JUNCTION        1.46          1.043        1.207
  WS02006116           JUNCTION        1.48          0.975        1.315
  WS02006228           JUNCTION        2.06          2.200        0.000
  WS02006229           JUNCTION        0.94          1.066        0.004
  WS02006230           JUNCTION        1.67          1.570        0.000
  WS02006231           JUNCTION        1.67          1.479        0.051
  WS02006232           JUNCTION        1.84          1.480        0.000
  WS02006234           JUNCTION        1.69          1.240        0.000
  WS02006235           JUNCTION        1.72          1.234        0.056
  WS02006238           JUNCTION        1.73          1.228        0.202
  WS02006239           JUNCTION        1.67          1.064        0.226
  WS02006240           JUNCTION        1.65          0.929        0.461
  WS02006242           JUNCTION        1.68          0.820        0.000
  WS02006243           JUNCTION        1.60          0.770        0.000
  WS02006245           JUNCTION        1.59          0.850        0.000
  WS02006247           JUNCTION        1.60          0.760        0.000
  WS02006248           JUNCTION        1.58          0.380        0.000
  WS02006249           JUNCTION        1.59          0.390        0.000
  WS02006251           JUNCTION        1.52          1.140        0.040
  WS02006252           JUNCTION        1.63          1.100        0.000
  WS02006253           JUNCTION        1.54          2.061        0.419
  WS02006256           JUNCTION        7.99          2.050        0.000
  WS02006280           JUNCTION        0.78          0.724        0.056
  WS02006284           JUNCTION        0.69          0.710        0.090
  WS02006287           JUNCTION        0.57          0.780        0.110
  YS02001580           JUNCTION        0.55          0.450        0.000
  YS02001583           JUNCTION        0.56          0.337        0.163
  YS02001586           JUNCTION        0.67          0.510        0.000
  YS02001590           JUNCTION        0.75          0.750        0.000
  YS02001593           JUNCTION        0.75          0.712        0.128
  YS02001596           JUNCTION        0.87          0.953        0.117
  YS02001600           JUNCTION        1.05          1.190        0.000
  YS02001601           JUNCTION        1.40          1.440        0.000
  YS02001602           JUNCTION        1.28          1.270        0.000
  YS02001605           JUNCTION        1.23          1.175        0.005
  YS02001607           JUNCTION        0.74          0.661        0.019
  YS02001610           JUNCTION        0.77          0.680        0.000
  YS02001613           JUNCTION        0.74          0.662        0.038
  YS02001616           JUNCTION        0.70          0.603        0.007
  YS02001619           JUNCTION        0.68          0.607        0.003
  YS02001622           JUNCTION        0.68          0.575        0.045
  YS02001625           JUNCTION        0.87          0.780        0.000
  YS02001629           JUNCTION        0.64          0.470        0.000
  YS02001633           JUNCTION        0.91          1.006        0.054
  YS02001641           JUNCTION        0.85          0.968        0.132
  YS02001644           JUNCTION        0.82          0.920        0.000
  YS02001647           JUNCTION        0.63          0.814        0.086
  YS02001649           JUNCTION        0.76          1.050        0.000
  YS02001652           JUNCTION        0.57          1.130        0.000
  YS02001655           JUNCTION        0.43          1.200        0.000
  YS02001658           JUNCTION        0.23          0.780        0.520
  YS02001661           JUNCTION        0.03          0.223        1.167
  YS02001748           JUNCTION        0.17          0.229        0.961
  YS02001751           JUNCTION        0.32          0.457        0.743
  YS02001754           JUNCTION        0.50          0.683        0.467
  YS02001757           JUNCTION        0.83          1.085        0.125
  YS02001759           JUNCTION        0.74          1.042        0.168
  YS02001762           JUNCTION        0.71          1.003        0.147
  YS02001765           JUNCTION        0.66          0.962        0.138
  YS02001767           JUNCTION        0.64          0.931        0.099
  YS02001770           JUNCTION        0.60          0.900        0.020
  YS02001774           JUNCTION        0.70          0.984        0.066
  YS02001779           JUNCTION        0.49          0.680        0.000
  YS02001783           JUNCTION        0.57          0.891        0.709
  YS02001784           JUNCTION        0.56          0.869        0.621
  YS02001786           JUNCTION        0.52          0.711        0.719
  YS02001788           JUNCTION        0.25          0.689        0.791
  YS02001790           JUNCTION        0.54          0.723        0.434
  YS02001791           JUNCTION        0.59          0.586        1.334
  YS02001793           JUNCTION        0.68          0.801        1.799
  YS02001882           JUNCTION        0.43          0.650        0.180
  YS02001884           JUNCTION        0.44          0.685        0.185
  YS02001887           JUNCTION        0.48          0.771        0.179
  YS02001890           JUNCTION        0.49          0.760        0.000
  YS02001895           JUNCTION        0.42          0.566        0.184
  YS02001898           JUNCTION        0.42          0.537        0.203
  YS02001901           JUNCTION        0.47          0.681        0.189
  YS02001904           JUNCTION        0.46          0.642        0.208
  YS02001907           JUNCTION        0.73          0.950        0.000
  YS02001910           JUNCTION        0.52          0.975        0.125
  YS02001915           JUNCTION        0.43          0.927        0.073
  YS02001918           JUNCTION        0.34          0.810        0.000
  YS02001920           JUNCTION        0.35          1.051        0.089
  YS02001923           JUNCTION        0.05          0.724        0.096
  YS02001926           JUNCTION        0.08          0.829        0.071
  YS02001929           JUNCTION        0.01          0.780        0.000
  YS02006553           JUNCTION        0.75          1.018        0.172
  YS02006556           JUNCTION        0.61          1.014        0.336
  YS02006558           JUNCTION        0.60          1.015        0.385
  YS02006561           JUNCTION        0.36          0.457        0.693
  YS02163301           JUNCTION        0.89          0.920        0.110
  YS02163601           JUNCTION        0.94          1.045        0.035
  YS02164001           JUNCTION        0.85          0.971        0.129
  YSB1154              JUNCTION        0.90          1.241        0.159
  YSB1171              JUNCTION        0.90          1.100        0.000
  YSB1174              JUNCTION        0.81          1.107        0.143
  YSB6556              JUNCTION        0.73          1.080        0.020
  
  
  *********************
  Node Flooding Summary
  *********************
  
  Flooding refers to all water that overflows a node, whether it ponds or not.
  --------------------------------------------------------------------------
                                                             Total   Maximum
                                 Maximum   Time of Max       Flood    Ponded
                        Hours       Rate    Occurrence      Volume     Depth
  Node                 Flooded       LPS   days hr:min    10^6 ltr    Meters
  --------------------------------------------------------------------------
  HS02004770              0.39   1349.15      0  02:25       0.747     0.000
  HS02004777              0.01     38.86      0  02:12       0.000     0.000
  HS02004792              0.37   2073.77      0  02:25       1.337     0.000
  HS02004799              0.16    180.17      0  02:25       0.062     0.000
  HS02004807              0.09    388.74      0  02:25       0.078     0.000
  HS02004824              0.03     32.78      0  02:25       0.002     0.000
  HS02004842              0.02     35.26      0  02:16       0.001     0.000
  HS02004862              0.01     10.83      0  02:25       0.000     0.000
  HS02004901              0.45    682.54      0  02:25       0.700     0.000
  WS02006109              0.41    324.19      0  02:25       0.259     0.000
  WS02006228              0.01      4.99      0  02:16       0.000     0.000
  WS02006230              0.70    574.07      0  02:23       0.940     0.000
  WS02006232              0.18      0.74      0  02:47       0.000     0.000
  WS02006234              0.76    128.67      0  02:40       0.227     0.000
  WS02006242              0.87    137.53      0  02:33       0.376     0.000
  WS02006243              0.01     43.21      0  01:51       0.000     0.000
  WS02006245              0.01     23.13      0  01:51       0.000     0.000
  WS02006247              0.01     61.67      0  01:51       0.000     0.000
  WS02006248              1.21    339.21      0  02:08       1.261     0.000
  WS02006249              1.56   1312.52      0  02:25       3.995     0.000
  WS02006252              0.46    512.68      0  02:25       0.428     0.000
  WS02006256              1.06    293.19      0  00:00       0.561     0.000
  YS02001580              0.01     44.45      0  02:12       0.000     0.000
  YS02001586              0.43    445.52      0  02:26       0.306     0.000
  YS02001590              0.01      8.76      0  02:12       0.000     0.000
  YS02001600              0.01      2.92      0  02:12       0.000     0.000
  YS02001601              0.60   1185.87      0  02:25       1.131     0.000
  YS02001602              0.52     62.08      0  02:23       0.105     0.000
  YS02001610              0.45    717.54      0  02:26       0.558     0.000
  YS02001625              0.44   1358.43      0  02:25       1.102     0.000
  YS02001629              0.08     22.93      0  02:25       0.002     0.000
  YS02001644              0.19   1074.28      0  02:25       0.364     0.000
  YS02001649              0.01      4.19      0  02:23       0.000     0.000
  YS02001652              0.01      8.73      0  02:16       0.000     0.000
  YS02001655              0.01    265.32      0  02:16       0.000     0.000
  YS02001779              0.16    544.05      0  02:25       0.154     0.000
  YS02001890              0.15    259.06      0  02:25       0.060     0.000
  YS02001907              0.29   1634.08      0  02:25       0.839     0.000
  YS02001918              0.01     75.31      0  02:19       0.000     0.000
  YS02001929              0.01    188.12      0  02:19       0.000     0.000
  YSB1171                 0.27   1035.24      0  02:25       0.515     0.000
  JK-storage              0.41    714.86      0  02:34       0.517     0.000
  
  
  **********************
  Storage Volume Summary
  **********************
  
  --------------------------------------------------------------------------------------------------
                         Average     Avg  Evap Exfil       Maximum     Max    Time of Max    Maximum
                          Volume    Pcnt  Pcnt  Pcnt        Volume    Pcnt     Occurrence    Outflow
  Storage Unit           1000 m3    Full  Loss  Loss       1000 m3    Full    days hr:min        LPS
  --------------------------------------------------------------------------------------------------
  CC-storage               3.170      49     0     0         5.050      79       0  02:42    1783.53
  JK-storage               0.158      54     0     0         0.291     100       0  02:34    2300.00
  XR-storage               0.953      66     0     0         1.111      77       0  08:00     380.00
  
  
  ***********************
  Outfall Loading Summary
  ***********************
  
  -----------------------------------------------------------
                         Flow       Avg       Max       Total
                         Freq      Flow      Flow      Volume
  Outfall Node           Pcnt       LPS       LPS    10^6 ltr
  -----------------------------------------------------------
  CC-1                  23.56    683.00    683.00       3.638
  CC-2                  14.88    683.00    683.00       2.547
  JK-1                  20.48    331.03   1000.00       1.546
  JK-2                  15.51    116.57   1000.00       0.489
  WSC                   99.96    586.59   1530.57      14.020
  -----------------------------------------------------------
  System                34.88   2400.19   1530.57      22.239
  
  
  ********************
  Link Flow Summary
  ********************
  
  -----------------------------------------------------------------------------
                                 Maximum  Time of Max   Maximum    Max/    Max/
                                  |Flow|   Occurrence   |Veloc|    Full    Full
  Link                 Type          LPS  days hr:min     m/sec    Flow   Depth
  -----------------------------------------------------------------------------
  1                    CONDUIT   1530.57     0  02:28      3.71    0.53    0.52
  HS02004478WS02006287 CONDUIT   2305.64     0  02:23      2.60    0.65    1.00
  HS02004479HS02004480 CONDUIT    387.43     0  02:18      0.55    0.37    1.00
  HS02004480HS02004478 CONDUIT   2051.38     0  02:15      2.93    8.64    1.00
  HS02004770HS02004777 CONDUIT    692.08     0  02:12      0.99    1.27    1.00
  HS02004777HS02004785 CONDUIT    704.17     0  02:12      1.06    0.87    1.00
  HS02004785HS02004788 CONDUIT    641.23     0  02:13      1.36    4.83    1.00
  HS02004788HS02004792 CONDUIT    846.22     0  02:13      1.43    0.56    1.00
  HS02004792HS02004799 CONDUIT   1625.69     0  02:13      2.32    1.00    1.00
  HS02004799HS02004480 CONDUIT   1743.00     0  02:13      2.49    2.20    1.00
  HS02004802HS02004478 CONDUIT   1234.41     0  02:27      1.76    1.09    1.00
  HS02004807HS02004802 CONDUIT   1233.88     0  02:27      1.76    2.36    1.00
  HS02004817HS02004807 CONDUIT   1195.97     0  02:26      1.71    0.71    1.00
  HS02004817HS02004824 CONDUIT   1195.68     0  02:26      1.71    0.54    1.00
  HS02004824HS02004830 CONDUIT    553.04     0  02:13      0.81    0.72    1.00
  HS02004830HS02004837 CONDUIT    579.62     0  02:13      0.92    0.58    1.00
  HS02004837HS02004842 CONDUIT    728.58     0  02:16      1.04    0.43    1.00
  HS02004842HS02004848 CONDUIT    726.42     0  02:16      1.07    0.42    1.00
  HS02004848HS02004852 CONDUIT    990.96     0  02:16      1.51    1.12    1.00
  HS02004852HS02004856 CONDUIT    955.59     0  02:16      1.43    1.09    1.00
  HS02004856HS02004862 CONDUIT    979.56     0  02:16      1.64    0.98    1.00
  HS02004862HS02004870 CONDUIT   1063.23     0  02:15      1.88    1.15    1.00
  HS02004870HS02004876 CONDUIT   1240.33     0  02:24      1.77    0.82    1.00
  HS02004876HS02004881 CONDUIT   1509.66     0  02:25      2.42   16.06    1.00
  HS02004881HS02006253 CONDUIT   1640.79     0  02:24      2.71    0.32    1.00
  HS02004901HS02004770 CONDUIT    265.79     0  02:36      0.38    1.00    1.00
  WS02001211WS02001212 CONDUIT    208.79     0  03:32      0.54    0.16    0.70
  WS02001212WS02001213 CONDUIT    212.87     0  03:33      1.04    0.33    0.57
  WS02001213WS02003059 CONDUIT    219.89     0  03:33      0.47    0.36    0.90
  WS02003059WS02003060 CONDUIT    228.27     0  03:32      0.67    0.15    0.82
  WS02003060WS02003069 CONDUIT   1527.65     0  02:26      2.09    0.60    0.62
  WS02003066WSF200     CONDUIT   1330.08     0  02:25      3.26    0.22    0.39
  WS02003067WS02003066 CONDUIT   1330.00     0  02:25      2.03    0.43    0.56
  WS02003069WS02003072 CONDUIT   1527.74     0  02:27      1.90    0.74    0.67
  WS02003072WS02003073 CONDUIT   1528.08     0  02:27      2.06    3.30    0.62
  WS02004138WS02004139 CONDUIT    190.00     0  00:32      2.15    0.04    0.42
  WS02004139WS02001211 CONDUIT    195.92     0  03:32      0.54    0.25    0.61
  WS02004401WS02004402 CONDUIT   1330.95     0  02:25      1.69    1.60    1.00
  WS02004402WS02004403 CONDUIT   1330.96     0  02:25      1.69    1.91    1.00
  WS02004403WS02004404 CONDUIT   1330.84     0  02:25      1.69    0.96    1.00
  WS02004404WS02004405 CONDUIT   1332.18     0  02:25      1.70   13.05    1.00
  WS02004405WS02004406 CONDUIT   1332.02     0  02:25      1.70    2.63    1.00
  WS02004406WS02004407 CONDUIT   1332.51     0  02:25      1.70    0.60    0.99
  WS02004407WS02004409 CONDUIT   1329.36     0  02:25      1.76    0.47    0.99
  WS02004409WS02004410 CONDUIT   1329.38     0  02:25      1.69    1.72    1.00
  WS02004410WS02004411 CONDUIT   1329.78     0  02:25      1.69    1.82    1.00
  WS02004411WS02004412 CONDUIT   1329.86     0  02:25      1.69    1.89    1.00
  WS02004412WS02004413 CONDUIT   1329.50     0  02:25      1.69    0.89    1.00
  WS02004413WS02003067 CONDUIT   1329.36     0  02:25      2.05    0.57    0.77
  WS02006109WS02006110 CONDUIT   1121.98     0  02:38      2.23    2.16    1.00
  WS02006110WS02006113 CONDUIT   1122.00     0  02:38      2.23    1.02    1.00
  WS02006111WS02006112 CONDUIT   1122.54     0  02:38      2.23    0.53    1.00
  WS02006112WS02006115 CONDUIT   1330.27     0  02:24      1.69    0.79    1.00
  WS02006113WS02006111 CONDUIT   1121.95     0  02:38      2.59    1.34    1.00
  WS02006115WS02006116 CONDUIT   1330.07     0  02:24      1.69    1.71    1.00
  WS02006116WS02004401 CONDUIT   1330.41     0  02:25      1.69    1.83    1.00
  WS02006228WS02006109 CONDUIT   1288.42     0  02:23      2.56    5.63    1.00
  WS02006229WS02006228 CONDUIT   1288.53     0  02:23      2.56    4.27    1.00
  WS02006230WS02006229 CONDUIT   1016.87     0  02:23      2.64   22.63    1.00
  WS02006231WS02006230 CONDUIT    469.93     0  03:25      1.22    7.13    1.00
  WS02006232WS02006231 CONDUIT    469.88     0  03:25      1.22    0.98    1.00
  WS02006234WS02006232 CONDUIT    469.82     0  03:25      1.41    0.95    1.00
  WS02006235WS02006234 CONDUIT    469.73     0  03:25      1.23    4.96    1.00
  WS02006238WS02006235 CONDUIT    416.13     0  02:32      1.45    0.93    1.00
  WS02006239WS02006238 CONDUIT    415.38     0  02:33      1.12    1.33    1.00
  WS02006240WS02006239 CONDUIT    415.21     0  02:33      1.26    1.31    1.00
  WS02006242WS02006240 CONDUIT    415.36     0  02:33      1.14    1.65    1.00
  WS02006243WS02006242 CONDUIT    376.38     0  03:25      1.34    0.80    1.00
  WS02006245WS02006243 CONDUIT    376.07     0  03:25      1.39    1.11    1.00
  WS02006247WS02006245 CONDUIT    383.09     0  00:05      1.37    3.04    1.00
  WS02006248WS02006247 CONDUIT    385.59     0  00:04      1.38    0.84    1.00
  WS02006249WS02006248 CONDUIT    390.96     0  00:04      1.38    2.14    1.00
  WS02006251WS02006249 CONDUIT   1373.38     0  02:25      3.57    3.96    1.00
  WS02006252WS02006251 CONDUIT    409.57     0  02:51      3.88    1.50    1.00
  WS02006253WS02006251 CONDUIT   1683.63     0  02:25      4.37    5.05    1.00
  WS02006256WS02006235 CONDUIT    288.93     0  00:00      4.23    3.06    1.00
  WS02006280WS02006229 CONDUIT   2305.62     0  02:23      4.35    0.49    1.00
  WS02006284WS02006280 CONDUIT   2304.61     0  02:23      2.99    0.97    1.00
  WS02006287WS02006284 CONDUIT   2305.43     0  02:23      2.94    1.07    1.00
  WSF200WS02003060     CONDUIT   1330.02     0  02:25      2.30    0.30    0.51
  YS02001580YS02001583 CONDUIT     73.99     0  02:11      0.51    0.29    1.00
  YS02001583YS02001586 CONDUIT    121.21     0  02:11      0.51    0.18    1.00
  YS02001586YS02001590 CONDUIT    318.03     0  02:37      1.26    0.56    1.00
  YS02001590YS02001593 CONDUIT    318.09     0  02:37      1.13    2.00    1.00
  YS02001593YS02001596 CONDUIT    318.07     0  02:31      1.72    0.50    1.00
  YS02001596YS02001600 CONDUIT    318.12     0  02:18      1.26    0.62    1.00
  YS02001600YS02001601 CONDUIT    318.38     0  02:18      1.13    0.55    1.00
  YS02001601YS02001602 CONDUIT    485.88     0  02:11      1.72    1.75    1.00
  YS02001602YS02001605 CONDUIT    486.40     0  02:11      1.72   10.29    1.00
  YS02001605YS02001607 CONDUIT    486.31     0  02:11      1.72    2.67    1.00
  YS02001607YS02001610 CONDUIT    489.68     0  02:10      0.62    0.47    1.00
  YS02001610YS02001613 CONDUIT    491.64     0  02:10      0.63    0.57    1.00
  YS02001613YS02001616 CONDUIT    485.94     0  02:10      0.63    0.42    1.00
  YS02001616YS02001619 CONDUIT    485.07     0  02:11      0.65    0.84    1.00
  YS02001619YS02001622 CONDUIT    955.53     0  02:25      1.22    1.41    1.00
  YS02001622YS02001625 CONDUIT    956.66     0  02:25      1.22    0.51    1.00
  YS02001625YS02001629 CONDUIT    888.53     0  02:13      1.13    0.42    1.00
  YS02001629YS02163301 CONDUIT    885.73     0  02:13      1.13    1.09    1.00
  YS02001633YS02163601 CONDUIT   1231.06     0  02:14      1.57    1.29    1.00
  YS02001641YS02001644 CONDUIT   1232.93     0  02:14      1.57    3.99    1.00
  YS02001644YS02001647 CONDUIT   1544.85     0  02:14      2.01    0.91    1.00
  YS02001647YS02001649 CONDUIT   1543.79     0  02:15      2.11    0.82    1.00
  YS02001649YS02001757 CONDUIT   1747.44     0  02:16      2.22    1.06    1.00
  YS02001652YS02001649 CONDUIT    878.63     0  02:25      1.12    0.44    1.00
  YS02001655YS02001652 CONDUIT    877.69     0  02:25      1.23    0.43    1.00
  YS02001658YS02001655 CONDUIT    877.45     0  02:25      1.78    0.37    1.00
  YS02001661YS02001658 CONDUIT    877.73     0  02:25      2.09    0.34    1.00
  YS02001664YS02001661 CONDUIT    876.09     0  02:25      1.99    0.27    0.78
  YS02001745YS02001748 CONDUIT    507.90     0  02:25      1.89    0.20    0.92
  YS02001748YS02001751 CONDUIT    508.58     0  02:25      1.50    0.26    1.00
  YS02001751YS02001754 CONDUIT    508.13     0  02:25      1.35    0.24    1.00
  YS02001754YS02001757 CONDUIT    508.81     0  02:25      0.65    0.20    1.00
  YS02001757CaochengTiaoxuchi CONDUIT   2935.78     0  02:23      3.74    1.27    1.00
  YS02001759YS02001757 CONDUIT   1230.41     0  02:24      1.57    0.87    1.00
  YS02001762YS02001759 CONDUIT    655.63     0  02:21      0.83    0.76    1.00
  YS02001765YS02001762 CONDUIT    655.16     0  02:21      0.83    0.61    1.00
  YS02001767YS02001765 CONDUIT    654.23     0  02:21      0.83    0.82    1.00
  YS02001770YS02001767 CONDUIT    654.58     0  02:21      0.83    2.59    1.00
  YS02001774YS02001770 CONDUIT    543.56     0  02:25      0.69    0.35    1.00
  YS02001779YS02001774 CONDUIT    544.55     0  02:25      0.69    0.27    1.00
  YS02001783YS02001784 CONDUIT   1164.10     0  02:23      2.32    1.60    1.00
  YS02001784YS02001785 CONDUIT   1165.05     0  02:23      2.32    2.71    1.00
  YS02001786YS02001788 CONDUIT   1165.62     0  02:23      2.48    2.25    1.00
  YS02001788YS02001790 CONDUIT   1173.23     0  02:22      2.71    0.86    1.00
  YS02001790YS02001791 CONDUIT   1296.21     0  02:24      3.43    1.41    1.00
  YS02001791YS02001793 CONDUIT   1239.30     0  02:26      6.79    0.53    1.00
  YS02001793JiankangQianchi CONDUIT   1245.67     0  02:27      2.48    0.10    1.00
  YS02001882YS02001884 CONDUIT     37.81     0  02:16      0.13    0.04    1.00
  YS02001884YS02001887 CONDUIT     46.80     0  02:15      0.10    0.06    1.00
  YS02001887YS02001890 CONDUIT    773.60     0  02:25      0.98    1.32    1.00
  YS02001890YS02001895 CONDUIT    517.58     0  02:26      0.66    0.24    1.00
  YS02001895YS02001898 CONDUIT    517.54     0  02:27      0.66    0.90    1.00
  YS02001898YS02001901 CONDUIT    517.72     0  02:26      0.66    0.33    1.00
  YS02001901YS02001904 CONDUIT    517.52     0  02:27      0.66    0.80    1.00
  YS02001904YS02001907 CONDUIT    517.68     0  02:27      0.66    0.18    1.00
  YS02001907YS02006553 CONDUIT    790.51     0  02:34      0.88    0.93    1.00
  YS02001910YS02001907 CONDUIT   1283.52     0  02:25      1.63    0.72    1.00
  YS02001915YS02001910 CONDUIT   1283.06     0  02:25      1.63    0.64    1.00
  YS02001918YS02001915 CONDUIT    461.29     0  02:20      0.59    0.25    1.00
  YS02001920YS02001918 CONDUIT    459.39     0  02:20      0.63    0.44    1.00
  YS02001923YS02001920 CONDUIT    455.09     0  02:20      0.71    0.20    1.00
  YS02001926YS02001923 CONDUIT    453.16     0  02:25      0.96    0.65    1.00
  YS02001929YS02001926 CONDUIT    451.81     0  02:25      1.10    0.21    1.00
  YS02006553YS02006556 CONDUIT    792.34     0  02:34      1.01    0.68    1.00
  YS02006556YS02006558 CONDUIT    791.34     0  02:34      1.01    0.62    1.00
  YS02006558YS02006561 CONDUIT   1163.86     0  02:23      4.12    2.57    1.00
  YS02006561YS02001783 CONDUIT   1164.10     0  02:23      2.32    0.60    1.00
  YS02163301YS02001633 CONDUIT    884.89     0  02:13      1.13    0.83    1.00
  YS02163601YS02164001 CONDUIT   1231.77     0  02:14      1.57    1.09    1.00
  YS02164001YS02001641 CONDUIT   1233.83     0  02:14      1.57    1.68    1.00
  YSB1154YSB6556       CONDUIT    439.04     0  02:25      1.14    0.79    1.00
  YSB1171HS02004479    CONDUIT    387.17     0  02:18      0.77    0.26    1.00
  YSB1174YSB1171       CONDUIT    365.40     0  02:25      0.95    0.56    1.00
  YSB6556YSB1171       CONDUIT    440.06     0  02:25      1.14    0.45    1.00
  CC-R1                PUMP       683.00     0  00:00              1.00
  CC-R2                PUMP       683.00     0  00:00              1.00
  CC-S1                PUMP       200.00     0  00:00              1.00
  CC-S2                PUMP       200.00     0  00:00              1.00
  JK-R1                PUMP      1000.00     0  00:00              1.00
  JK-R2                PUMP      1000.00     0  00:00              1.00
  JK-S                 PUMP       300.00     0  00:00              1.00
  XR-1                 PUMP        95.00     0  00:00              1.00
  XR-2                 PUMP        95.00     0  00:00              1.00
  XR-3                 PUMP        95.00     0  00:00              1.00
  XR-4                 PUMP        95.00     0  00:00              1.00
  
  
  ***************************
  Flow Classification Summary
  ***************************
  
  -------------------------------------------------------------------------------------
                      Adjusted    ---------- Fraction of Time in Flow Class ---------- 
                       /Actual         Up    Down  Sub   Sup   Up    Down  Norm  Inlet 
  Conduit               Length    Dry  Dry   Dry   Crit  Crit  Crit  Crit  Ltd   Ctrl  
  -------------------------------------------------------------------------------------
  1                       1.00   0.00  0.00  0.00  0.00  1.00  0.00  0.00  0.38  0.00
  HS02004478WS02006287    1.00   0.12  0.00  0.00  0.61  0.27  0.00  0.00  0.59  0.00
  HS02004479HS02004480    1.00   0.03  0.00  0.00  0.97  0.00  0.00  0.00  0.11  0.00
  HS02004480HS02004478    1.00   0.10  0.00  0.00  0.52  0.00  0.00  0.38  0.00  0.00
  HS02004770HS02004777    1.00   0.00  0.09  0.00  0.91  0.00  0.00  0.00  0.02  0.00
  HS02004777HS02004785    1.00   0.00  0.00  0.00  1.00  0.00  0.00  0.00  0.11  0.00
  HS02004785HS02004788    1.00   0.00  0.00  0.00  1.00  0.00  0.00  0.00  0.00  0.00
  HS02004788HS02004792    1.00   0.00  0.00  0.00  0.99  0.01  0.00  0.00  0.90  0.00
  HS02004792HS02004799    1.00   0.00  0.00  0.00  0.99  0.01  0.00  0.00  0.85  0.00
  HS02004799HS02004480    1.00   0.00  0.03  0.00  0.88  0.00  0.09  0.00  0.00  0.00
  HS02004802HS02004478    1.00   0.10  0.00  0.00  0.90  0.00  0.00  0.00  0.02  0.00
  HS02004807HS02004802    1.00   0.09  0.00  0.00  0.89  0.00  0.00  0.01  0.00  0.00
  HS02004817HS02004807    1.00   0.00  0.09  0.00  0.91  0.00  0.00  0.00  0.01  0.00
  HS02004817HS02004824    1.00   0.00  0.00  0.00  1.00  0.00  0.00  0.00  0.81  0.00
  HS02004824HS02004830    1.00   0.00  0.00  0.00  1.00  0.00  0.00  0.00  0.01  0.00
  HS02004830HS02004837    1.00   0.00  0.00  0.00  1.00  0.00  0.00  0.00  0.88  0.00
  HS02004837HS02004842    1.00   0.00  0.00  0.00  1.00  0.00  0.00  0.00  0.11  0.00
  HS02004842HS02004848    1.00   0.00  0.09  0.00  0.90  0.00  0.00  0.00  0.56  0.00
  HS02004848HS02004852    1.00   0.10  0.00  0.00  0.90  0.00  0.00  0.00  0.69  0.00
  HS02004852HS02004856    1.00   0.09  0.01  0.00  0.90  0.00  0.00  0.00  0.67  0.00
  HS02004856HS02004862    1.00   0.00  0.12  0.00  0.88  0.00  0.00  0.00  0.74  0.00
  HS02004862HS02004870    1.00   0.00  0.00  0.00  1.00  0.00  0.00  0.00  0.03  0.00
  HS02004870HS02004876    1.00   0.00  0.00  0.00  0.99  0.01  0.00  0.00  0.86  0.00
  HS02004876HS02004881    1.00   0.02  0.00  0.00  0.77  0.21  0.00  0.00  0.00  0.00
  HS02004881HS02006253    1.00   0.03  0.01  0.00  0.37  0.01  0.00  0.57  0.16  0.00
  HS02004901HS02004770    1.00   0.09  0.00  0.00  0.91  0.00  0.00  0.00  0.00  0.00
  WS02001211WS02001212    1.00   0.00  0.02  0.00  0.98  0.00  0.00  0.00  0.00  0.00
  WS02001212WS02001213    1.00   0.02  0.00  0.00  0.42  0.00  0.56  0.00  0.00  0.00
  WS02001213WS02003059    1.00   0.00  0.00  0.00  0.99  0.00  0.00  0.00  0.00  0.00
  WS02003059WS02003060    1.00   0.00  0.00  0.00  1.00  0.00  0.00  0.00  0.03  0.00
  WS02003060WS02003069    1.00   0.00  0.00  0.00  0.99  0.01  0.00  0.00  0.53  0.00
  WS02003066WSF200        1.00   0.09  0.00  0.00  0.00  0.91  0.00  0.00  0.61  0.00
  WS02003067WS02003066    1.00   0.08  0.01  0.00  0.91  0.00  0.00  0.00  0.00  0.00
  WS02003069WS02003072    1.00   0.00  0.00  0.00  1.00  0.00  0.00  0.00  0.66  0.00
  WS02003072WS02003073    1.00   0.00  0.00  0.00  0.00  0.00  0.00  1.00  0.00  0.00
  WS02004138WS02004139    1.00   0.00  0.00  0.00  0.98  0.00  0.00  0.01  0.98  0.00
  WS02004139WS02001211    1.00   0.00  0.00  0.00  1.00  0.00  0.00  0.00  0.00  0.00
  WS02004401WS02004402    1.00   0.02  0.00  0.00  0.98  0.00  0.00  0.00  0.00  0.00
  WS02004402WS02004403    1.00   0.02  0.00  0.00  0.98  0.00  0.00  0.00  0.00  0.00
  WS02004403WS02004404    1.00   0.00  0.02  0.00  0.98  0.00  0.00  0.00  0.00  0.00
  WS02004404WS02004405    1.00   0.00  0.00  0.00  1.00  0.00  0.00  0.00  0.00  0.00
  WS02004405WS02004406    1.00   0.00  0.00  0.00  1.00  0.00  0.00  0.00  0.00  0.00
  WS02004406WS02004407    1.00   0.00  0.04  0.00  0.96  0.00  0.00  0.00  0.00  0.00
  WS02004407WS02004409    1.00   0.04  0.00  0.00  0.96  0.01  0.00  0.00  0.81  0.00
  WS02004409WS02004410    1.00   0.04  0.00  0.00  0.96  0.00  0.00  0.00  0.02  0.00
  WS02004410WS02004411    1.00   0.04  0.00  0.00  0.96  0.00  0.00  0.00  0.00  0.00
  WS02004411WS02004412    1.00   0.04  0.00  0.00  0.96  0.00  0.00  0.00  0.00  0.00
  WS02004412WS02004413    1.00   0.04  0.00  0.00  0.96  0.00  0.00  0.00  0.01  0.00
  WS02004413WS02003067    1.00   0.04  0.03  0.00  0.00  0.00  0.92  0.00  0.00  0.00
  WS02006109WS02006110    1.00   0.00  0.01  0.00  0.99  0.00  0.01  0.00  0.00  0.00
  WS02006110WS02006113    1.00   0.01  0.01  0.00  0.99  0.00  0.00  0.00  0.00  0.00
  WS02006111WS02006112    1.00   0.02  0.00  0.00  0.98  0.00  0.00  0.00  0.77  0.00
  WS02006112WS02006115    1.00   0.02  0.00  0.00  0.98  0.00  0.00  0.00  0.00  0.00
  WS02006113WS02006111    1.00   0.01  0.00  0.00  0.24  0.75  0.00  0.00  0.08  0.00
  WS02006115WS02006116    1.00   0.02  0.00  0.00  0.98  0.00  0.00  0.01  0.00  0.00
  WS02006116WS02004401    1.00   0.02  0.00  0.00  0.98  0.00  0.00  0.00  0.00  0.00
  WS02006228WS02006109    1.00   0.00  0.00  0.00  1.00  0.00  0.00  0.00  0.00  0.00
  WS02006229WS02006228    1.00   0.00  0.00  0.00  0.99  0.00  0.00  0.01  0.00  0.00
  WS02006230WS02006229    1.00   0.00  0.00  0.00  0.99  0.00  0.00  0.01  0.01  0.00
  WS02006231WS02006230    1.00   0.00  0.00  0.00  0.44  0.00  0.56  0.00  0.00  0.00
  WS02006232WS02006231    1.00   0.00  0.00  0.00  0.99  0.00  0.00  0.00  0.00  0.00
  WS02006234WS02006232    1.00   0.00  0.00  0.00  1.00  0.00  0.00  0.00  0.00  0.00
  WS02006235WS02006234    1.00   0.00  0.00  0.00  0.80  0.00  0.20  0.00  0.00  0.00
  WS02006238WS02006235    1.00   0.00  0.00  0.00  1.00  0.00  0.00  0.00  0.00  0.00
  WS02006239WS02006238    1.00   0.00  0.00  0.00  1.00  0.00  0.00  0.00  0.04  0.00
  WS02006240WS02006239    1.00   0.00  0.00  0.00  0.60  0.00  0.00  0.40  0.01  0.00
  WS02006242WS02006240    1.00   0.00  0.00  0.00  1.00  0.00  0.00  0.00  0.00  0.00
  WS02006243WS02006242    1.00   0.00  0.00  0.00  1.00  0.00  0.00  0.00  0.66  0.00
  WS02006245WS02006243    1.00   0.00  0.00  0.00  0.94  0.00  0.00  0.06  0.00  0.00
  WS02006247WS02006245    1.00   0.00  0.00  0.00  0.99  0.00  0.00  0.01  0.00  0.00
  WS02006248WS02006247    1.00   0.00  0.00  0.00  1.00  0.00  0.00  0.00  0.67  0.00
[...]
  WSF200WS02003060        1.00   0.00  0.09  0.00  0.51  0.40  0.00  0.00  0.59  0.00
  YS02001580YS02001583    1.00   0.27  0.45  0.00  0.28  0.00  0.00  0.00  0.64  0.00
  YS02001583YS02001586    1.00   0.36  0.31  0.00  0.32  0.00  0.00  0.00  0.64  0.00
  YS02001586YS02001590    1.00   0.09  0.00  0.00  0.56  0.03  0.00  0.32  0.36  0.00
  YS02001590YS02001593    1.00   0.09  0.00  0.00  0.14  0.00  0.76  0.00  0.00  0.00
  YS02001593YS02001596    1.00   0.10  0.00  0.00  0.17  0.01  0.00  0.72  0.02  0.00
  YS02001596YS02001600    1.00   0.10  0.00  0.00  0.26  0.02  0.00  0.62  0.05  0.00
  YS02001600YS02001601    1.00   0.10  0.01  0.00  0.90  0.00  0.00  0.00  0.61  0.00
  YS02001601YS02001602    1.00   0.09  0.01  0.00  0.90  0.00  0.00  0.00  0.00  0.00
  YS02001602YS02001605    1.00   0.10  0.00  0.00  0.90  0.00  0.00  0.00  0.00  0.00
  YS02001605YS02001607    1.00   0.10  0.00  0.00  0.90  0.00  0.00  0.00  0.00  0.00
  YS02001607YS02001610    1.00   0.10  0.00  0.00  0.90  0.00  0.00  0.00  0.01  0.00
  YS02001610YS02001613    1.00   0.10  0.00  0.00  0.90  0.00  0.00  0.00  0.00  0.00
  YS02001613YS02001616    1.00   0.10  0.00  0.00  0.90  0.00  0.00  0.00  0.00  0.00
  YS02001616YS02001619    1.00   0.09  0.00  0.00  0.91  0.00  0.00  0.00  0.00  0.00
  YS02001619YS02001622    1.00   0.09  0.00  0.00  0.91  0.00  0.00  0.00  0.33  0.00
  YS02001622YS02001625    1.00   0.10  0.00  0.00  0.90  0.00  0.00  0.00  0.04  0.00
  YS02001625YS02001629    1.00   0.10  0.03  0.00  0.20  0.00  0.67  0.00  0.00  0.00
  YS02001629YS02163301    1.00   0.11  0.01  0.00  0.88  0.00  0.00  0.00  0.00  0.00
  YS02001633YS02163601    1.00   0.00  0.00  0.00  1.00  0.00  0.00  0.00  0.15  0.00
  YS02001641YS02001644    1.00   0.00  0.00  0.00  1.00  0.00  0.00  0.00  0.00  0.00
  YS02001644YS02001647    1.00   0.00  0.13  0.00  0.87  0.00  0.00  0.00  0.00  0.00
  YS02001647YS02001649    1.00   0.00  0.12  0.00  0.78  0.10  0.00  0.00  0.20  0.00
  YS02001649YS02001757    1.00   0.00  0.00  0.00  0.89  0.11  0.00  0.00  0.18  0.00
  YS02001652YS02001649    1.00   0.00  0.00  0.00  0.97  0.03  0.00  0.00  0.17  0.00
  YS02001655YS02001652    1.00   0.00  0.00  0.00  0.74  0.03  0.00  0.22  0.61  0.00
  YS02001658YS02001655    1.00   0.00  0.10  0.00  0.57  0.32  0.00  0.00  0.69  0.00
  YS02001661YS02001658    1.00   0.10  0.00  0.00  0.46  0.44  0.00  0.00  0.70  0.00
  YS02001664YS02001661    1.00   0.09  0.00  0.00  0.76  0.14  0.00  0.00  0.85  0.00
  YS02001745YS02001748    1.00   0.00  0.00  0.00  0.12  0.00  0.00  0.87  0.04  0.00
  YS02001748YS02001751    1.00   0.00  0.00  0.00  0.77  0.23  0.00  0.00  0.74  0.00
  YS02001751YS02001754    1.00   0.00  0.00  0.00  0.63  0.08  0.00  0.29  0.55  0.00
  YS02001754YS02001757    1.00   0.00  0.00  0.00  1.00  0.00  0.00  0.00  0.25  0.00
  YS02001757CaochengTiaoxuchi    1.00   0.00  0.00  0.00  1.00  0.00  0.00  0.00  0.25  0.00
  YS02001759YS02001757    1.00   0.00  0.00  0.00  0.99  0.01  0.00  0.00  0.07  0.00
  YS02001762YS02001759    1.00   0.00  0.00  0.00  1.00  0.00  0.00  0.00  0.03  0.00
  YS02001765YS02001762    1.00   0.00  0.00  0.00  1.00  0.00  0.00  0.00  0.14  0.00
  YS02001767YS02001765    1.00   0.00  0.00  0.00  1.00  0.00  0.00  0.00  0.00  0.00
  YS02001770YS02001767    1.00   0.00  0.00  0.00  1.00  0.00  0.00  0.00  0.00  0.00
  YS02001774YS02001770    1.00   0.00  0.10  0.00  0.90  0.00  0.00  0.00  0.03  0.00
  YS02001779YS02001774    1.00   0.00  0.00  0.00  1.00  0.00  0.00  0.00  0.40  0.00
  YS02001783YS02001784    1.00   0.00  0.13  0.00  0.87  0.00  0.00  0.00  0.56  0.00
  YS02001784YS02001785    1.00   0.00  0.00  0.00  1.00  0.00  0.00  0.00  0.16  0.00
  YS02001786YS02001788    1.00   0.00  0.00  0.00  0.76  0.24  0.00  0.00  0.00  0.00
  YS02001788YS02001790    1.00   0.00  0.00  0.00  0.26  0.74  0.00  0.00  0.79  0.00
  YS02001790YS02001791    1.00   0.00  0.00  0.00  0.12  0.88  0.00  0.00  0.10  0.00
  YS02001791YS02001793    1.00   0.00  0.00  0.00  0.12  0.88  0.00  0.00  0.01  0.00
  YS02001793JiankangQianchi    1.00   0.00  0.00  0.00  0.98  0.02  0.00  0.00  0.88  0.00
  YS02001882YS02001884    1.00   0.11  0.01  0.00  0.88  0.00  0.00  0.00  0.00  0.00
  YS02001884YS02001887    1.00   0.05  0.04  0.00  0.92  0.00  0.00  0.00  0.00  0.00
  YS02001887YS02001890    1.00   0.00  0.00  0.00  0.98  0.00  0.02  0.00  0.00  0.00
  YS02001890YS02001895    1.00   0.00  0.12  0.00  0.88  0.00  0.00  0.00  0.00  0.00
  YS02001895YS02001898    1.00   0.12  0.00  0.00  0.86  0.00  0.02  0.00  0.00  0.00
  YS02001898YS02001901    1.00   0.12  0.00  0.00  0.88  0.00  0.00  0.00  0.01  0.00
  YS02001901YS02001904    1.00   0.12  0.00  0.00  0.88  0.00  0.00  0.00  0.00  0.00
  YS02001904YS02001907    1.00   0.00  0.12  0.00  0.88  0.00  0.00  0.00  0.00  0.00
  YS02001907YS02006553    1.00   0.00  0.02  0.00  0.98  0.00  0.00  0.00  0.00  0.00
  YS02001910YS02001907    1.00   0.00  0.00  0.00  0.98  0.00  0.00  0.02  0.12  0.00
  YS02001915YS02001910    1.00   0.00  0.00  0.00  0.97  0.03  0.00  0.00  0.14  0.00
  YS02001918YS02001915    1.00   0.00  0.00  0.00  0.98  0.01  0.00  0.00  0.76  0.00
  YS02001920YS02001918    1.00   0.00  0.00  0.00  1.00  0.00  0.00  0.00  0.00  0.00
  YS02001923YS02001920    1.00   0.00  0.00  0.00  1.00  0.00  0.00  0.00  0.93  0.00
  YS02001926YS02001923    1.00   0.00  0.05  0.00  0.06  0.00  0.89  0.00  0.00  0.00
  YS02001929YS02001926    1.00   0.00  0.09  0.00  0.91  0.00  0.00  0.00  0.83  0.00
  YS02006553YS02006556    1.00   0.01  0.00  0.00  0.99  0.00  0.00  0.00  0.03  0.00
  YS02006556YS02006558    1.00   0.00  0.00  0.00  1.00  0.00  0.00  0.00  0.00  0.00
  YS02006558YS02006561    1.00   0.13  0.00  0.00  0.07  0.80  0.00  0.00  0.17  0.00
  YS02006561YS02001783    1.00   0.13  0.00  0.00  0.15  0.72  0.00  0.00  0.71  0.00
  YS02163301YS02001633    1.00   0.00  0.11  0.00  0.89  0.00  0.00  0.00  0.00  0.00
  YS02163601YS02164001    1.00   0.00  0.06  0.00  0.94  0.00  0.00  0.00  0.00  0.00
  YS02164001YS02001641    1.00   0.00  0.06  0.00  0.94  0.00  0.00  0.00  0.05  0.00
  YSB1154YSB6556          1.00   0.09  0.00  0.00  0.91  0.00  0.00  0.00  0.02  0.00
  YSB1171HS02004479       1.00   0.03  0.00  0.00  0.96  0.00  0.00  0.01  0.10  0.00
  YSB1174YSB1171          1.00   0.04  0.03  0.00  0.93  0.00  0.00  0.00  0.00  0.00
  YSB6556YSB1171          1.00   0.03  0.06  0.00  0.91  0.00  0.00  0.00  0.00  0.00
  
  
  *************************
  Conduit Surcharge Summary
  *************************
  
  ----------------------------------------------------------------------------
                                                           Hours        Hours 
                         --------- Hours Full --------   Above Full   Capacity
  Conduit                Both Ends  Upstream  Dnstream   Normal Flow   Limited
  ----------------------------------------------------------------------------
  HS02004478WS02006287        0.48      0.48      0.67      0.01         0.01
  HS02004479HS02004480        0.66      0.66      0.69      0.01         0.01
  HS02004480HS02004478        0.58      0.66      0.58      1.76         0.58
  HS02004770HS02004777        0.56      0.56      0.56      0.12         0.06
  HS02004777HS02004785        0.51      0.51      0.56      0.01         0.01
  HS02004785HS02004788        0.50      0.51      0.50      1.45         0.46
  HS02004788HS02004792        0.50      0.50      0.63      0.01         0.01
  HS02004792HS02004799        0.63      0.63      0.77      0.01         0.01
  HS02004799HS02004480        0.66      0.66      0.77      0.88         0.01
  HS02004802HS02004478        0.60      0.60      0.68      0.10         0.01
  HS02004807HS02004802        0.64      0.64      0.67      0.24         0.26
  HS02004817HS02004807        0.64      0.64      1.25      0.01         0.01
  HS02004817HS02004824        0.50      0.50      1.25      0.01         0.01
  HS02004824HS02004830        0.47      0.47      0.50      0.01         0.01
  HS02004830HS02004837        0.43      0.43      0.47      0.01         0.01
  HS02004837HS02004842        0.43      0.43      0.57      0.01         0.01
  HS02004842HS02004848        0.39      0.39      0.57      0.01         0.01
  HS02004848HS02004852        0.39      0.39      0.41      0.03         0.01
  HS02004852HS02004856        0.41      0.41      0.43      0.02         0.01
  HS02004856HS02004862        0.41      0.41      0.44      0.01         0.01
  HS02004862HS02004870        0.44      0.44      0.46      0.20         0.20
  HS02004870HS02004876        0.46      0.46      0.52      0.01         0.01
  HS02004876HS02004881        0.50      0.52      0.50      1.47         0.50
  HS02004881HS02006253        0.50      0.50      1.54      0.01         0.01
  HS02004901HS02004770        0.56      0.56      0.56      0.01         0.01
  WS02003072WS02003073        0.01      0.01      0.01      2.30         0.01
  WS02004401WS02004402        1.62      1.62      1.63      1.34         1.34
  WS02004402WS02004403        1.63      1.63      1.63      1.60         1.60
  WS02004403WS02004404        1.63      1.63      1.71      0.01         0.03
  WS02004404WS02004405        1.70      1.71      1.70      3.03         1.70
  WS02004405WS02004406        1.68      1.70      1.68      1.84         1.68
  WS02004406WS02004407        0.01      0.01      1.68      0.01         0.01
  WS02004407WS02004409        0.01      0.01      1.10      0.01         0.01
  WS02004409WS02004410        1.00      1.10      1.00      1.44         1.00
  WS02004410WS02004411        0.90      1.00      0.90      1.53         0.90
  WS02004411WS02004412        0.79      0.90      0.79      1.59         0.79
  WS02004412WS02004413        0.79      0.79      1.29      0.01         0.01
  WS02004413WS02003067        0.01      0.01      1.29      0.01         0.01
  WS02006109WS02006110        1.79      1.79      2.12      1.80         0.01
  WS02006110WS02006113        1.25      1.25      2.10      0.28         0.01
  WS02006111WS02006112        1.24      1.24      2.25      0.01         0.01
  WS02006112WS02006115        1.46      1.46      1.88      0.01         0.01
  WS02006113WS02006111        1.24      1.25      1.25      1.32         1.24
  WS02006115WS02006116        1.48      1.48      1.48      1.42         1.42
  WS02006116WS02004401        1.61      1.61      1.62      1.54         1.54
  WS02006228WS02006109        2.07      2.12      2.07      2.34         2.07
  WS02006229WS02006228        2.06      2.08      2.06      2.23         2.06
  WS02006230WS02006229        2.17      2.18      2.17      2.98         0.94
  WS02006231WS02006230        1.67      1.67      1.69      2.51         1.06
  WS02006232WS02006231        1.67      1.67      1.84      0.01         0.15
  WS02006234WS02006232        1.71      1.71      1.84      0.01         0.01
  WS02006235WS02006234        1.69      1.69      1.71      2.15         1.03
  WS02006238WS02006235        1.73      1.73      1.76      0.01         0.35
  WS02006239WS02006238        1.72      1.72      1.73      0.90         0.04
  WS02006240WS02006239        1.65      1.65      1.67      0.89         0.03
  WS02006242WS02006240        1.65      1.65      1.71      1.26         0.89
  WS02006243WS02006242        1.61      1.61      1.68      0.01         0.01
  WS02006245WS02006243        1.60      1.60      1.60      0.06         0.02
  WS02006247WS02006245        1.59      1.60      1.59      1.78         0.42
  WS02006248WS02006247        1.59      1.59      1.60      0.01         0.01
  WS02006249WS02006248        1.58      1.58      1.59      0.64         0.01
  WS02006251WS02006249        1.58      1.58      1.59      1.54         1.48
  WS02006252WS02006251        1.60      1.60      1.63      0.95         0.04
  WS02006253WS02006251        1.58      1.58      1.58      0.78         0.01
  WS02006256WS02006235        2.74      2.75      7.98      0.72         0.01
  WS02006280WS02006229        0.80      0.80      0.94      0.01         0.01
  WS02006284WS02006280        0.69      0.69      0.78      0.01         0.01
  WS02006287WS02006284        0.57      0.57      0.70      0.29         0.28
  YS02001580YS02001583        0.55      0.55      0.60      0.01         0.01
  YS02001583YS02001586        0.56      0.56      0.67      0.01         0.01
  YS02001586YS02001590        0.68      0.68      0.75      0.01         0.01
  YS02001590YS02001593        0.75      0.75      0.77      0.77         0.01
  YS02001593YS02001596        0.76      0.76      0.87      0.01         0.01
  YS02001596YS02001600        0.93      0.93      1.05      0.01         0.01
  YS02001600YS02001601        1.10      1.10      1.40      0.01         0.01
  YS02001601YS02001602        1.28      1.28      1.44      1.04         0.01
  YS02001602YS02001605        1.23      1.23      1.28      2.27         0.01
  YS02001605YS02001607        1.18      1.23      1.19      1.34         1.17
  YS02001607YS02001610        0.74      0.74      0.77      0.01         0.01
  YS02001610YS02001613        0.74      0.74      0.77      0.01         0.01
  YS02001613YS02001616        0.70      0.70      0.74      0.01         0.01
  YS02001616YS02001619        0.68      0.68      0.70      0.01         0.02
  YS02001619YS02001622        0.68      0.68      0.68      0.72         0.62
  YS02001622YS02001625        0.68      0.68      0.87      0.01         0.01
  YS02001625YS02001629        0.64      0.64      0.87      0.01         0.01
  YS02001629YS02163301        0.87      0.87      0.89      0.06         0.10
  YS02001633YS02163601        0.91      0.91      0.94      0.24         0.23
  YS02001641YS02001644        0.82      0.85      0.82      1.50         0.80
  YS02001644YS02001647        0.63      0.63      0.82      0.01         0.01
  YS02001647YS02001649        0.63      0.63      0.76      0.01         0.01
  YS02001649YS02001757        0.76      0.76      0.83      0.02         0.04
  YS02001652YS02001649        0.59      0.59      0.76      0.01         0.01
  YS02001655YS02001652        0.43      0.43      0.57      0.01         0.01
  YS02001658YS02001655        0.23      0.23      0.43      0.01         0.01
  YS02001661YS02001658        0.03      0.03      0.23      0.01         0.01
  YS02001664YS02001661        0.01      0.01      0.07      0.01         0.01
  YS02001745YS02001748        0.01      0.01      0.17      0.01         0.01
  YS02001748YS02001751        0.21      0.21      0.32      0.01         0.01
  YS02001751YS02001754        0.32      0.32      0.50      0.01         0.01
  YS02001754YS02001757        0.54      0.54      0.83      0.01         0.01
  YS02001757CaochengTiaoxuchi        0.83      0.83      6.01      0.28         0.29
  YS02001759YS02001757        0.74      0.74      0.83      0.01         0.01
  YS02001762YS02001759        0.71      0.71      0.74      0.01         0.02
  YS02001765YS02001762        0.66      0.66      0.71      0.01         0.01
  YS02001767YS02001765        0.64      0.64      0.66      0.01         0.02
  YS02001770YS02001767        0.63      0.63      0.64      0.40         0.38
  YS02001774YS02001770        0.60      0.60      0.70      0.01         0.01
  YS02001779YS02001774        0.49      0.49      0.70      0.01         0.01
  YS02001783YS02001784        0.56      0.57      0.56      0.61         0.51
  YS02001784YS02001785        0.52      0.56      0.52      0.88         0.52
  YS02001786YS02001788        0.25      0.52      0.25      0.76         0.25
  YS02001788YS02001790        0.25      0.25      0.54      0.01         0.01
  YS02001790YS02001791        0.54      0.54      0.59      0.35         0.06
  YS02001791YS02001793        0.59      0.59      0.71      0.01         0.01
  YS02001793JiankangQianchi        0.68      0.68      7.70      0.01         0.01
  YS02001882YS02001884        0.43      0.43      0.44      0.01         0.01
  YS02001884YS02001887        0.47      0.47      0.48      0.01         0.01
  YS02001887YS02001890        0.49      0.49      0.51      0.08         0.01
  YS02001890YS02001895        0.42      0.42      0.53      0.01         0.01
  YS02001895YS02001898        0.42      0.42      0.42      0.01         0.01
  YS02001898YS02001901        0.42      0.42      0.47      0.01         0.01
  YS02001901YS02001904        0.46      0.46      0.47      0.01         0.01
  YS02001904YS02001907        0.46      0.46      0.75      0.01         0.01
  YS02001907YS02006553        0.89      0.89      0.96      0.01         0.01
  YS02001910YS02001907        0.52      0.52      0.73      0.01         0.01
  YS02001915YS02001910        0.43      0.43      0.52      0.01         0.01
  YS02001918YS02001915        0.34      0.34      0.43      0.01         0.01
  YS02001920YS02001918        0.34      0.34      0.35      0.01         0.01
  YS02001923YS02001920        0.29      0.29      0.35      0.01         0.01
  YS02001926YS02001923        0.05      0.05      0.08      0.01         0.01
  YS02001929YS02001926        0.01      0.01      0.08      0.01         0.01
  YS02006553YS02006556        0.61      0.61      0.75      0.01         0.01
  YS02006556YS02006558        0.67      0.67      0.76      0.01         0.01
  YS02006558YS02006561        0.43      0.60      0.43      0.83         0.43
  YS02006561YS02001783        0.36      0.36      0.57      0.01         0.01
  YS02163301YS02001633        0.89      0.89      0.93      0.01         0.01
  YS02163601YS02164001        0.85      0.85      0.94      0.07         0.01
  YS02164001YS02001641        0.85      0.85      0.85      0.62         0.53
  YSB1154YSB6556              0.73      0.73      0.90      0.01         0.01
  YSB1171HS02004479           0.61      0.61      0.90      0.01         0.01
  YSB1174YSB1171              0.81      0.81      1.17      0.01         0.01
  YSB6556YSB1171              0.73      0.73      1.32      0.01         0.01
  
  
  ***************
  Pumping Summary
  ***************
  
  ---------------------------------------------------------------------------------------------------------
                                                  Min       Avg       Max     Total     Power    % Time Off
                        Percent   Number of      Flow      Flow      Flow    Volume     Usage    Pump Curve
  Pump                 Utilized   Start-Ups       LPS       LPS       LPS  10^6 ltr     Kw-hr    Low   High
  ---------------------------------------------------------------------------------------------------------
  CC-R1                   18.49           3      0.00    683.00    683.00     3.637     69.28    0.0    5.6
  CC-R2                   12.95           2      0.00    683.00    683.00     2.547     49.15    0.0    8.0
  CC-S1                   97.92           2      0.00     50.83    200.00     1.007      5.96    0.0    0.0
  CC-S2                   92.77           5      0.00     64.79    200.00     1.245      7.57    0.0    0.0
  JK-R1                   16.70           8      0.00    331.03   1000.00     1.544     17.64    0.0    0.0
  JK-R2                   13.04           3      0.00    116.57   1000.00     0.487      4.95    0.0    0.0
  JK-S                    29.94           7      0.00    103.02    300.00     1.161     11.18    0.0    0.0
  XR-1                    97.91           2      0.00     95.00     95.00     2.679      9.63    0.0    0.0
  XR-2                    93.95           2      0.00     95.00     95.00     2.570      8.79    0.0    0.0
  XR-3                     0.00           1      0.00     95.00     95.00     0.000      0.00    0.0    0.0
  XR-4                     0.00           1      0.00     95.00     95.00     0.000      0.00    0.0    0.0
  

  Analysis begun on:  Sun Jun 25 21:03:24 2023
  Analysis ended on:  Sun Jun 25 21:03:36 2023
  Total elapsed time: 00:00:12