
  OWA STORM WATER MANAGEMENT MODEL - VERSION v5.1.14 (OWA 2022-07-31)
  --------------------------------------------------------------

  WARNING 04: minimum elevation drop used for Conduit WS02004404WS02004405
  WARNING 03: negative offset ignored for Link YS02001904YS02001907
  
  *********************************************************
  NOTE: The summary statistics displayed in this report are
  based on results found at every computational time step,  
  not just on results from each reporting time step.
  *********************************************************
  
  ****************
  Analysis Options
  ****************
  Flow Units ............... LPS
  Process Models:
    Rainfall/Runoff ........ YES
    RDII ................... NO
    Snowmelt ............... NO
    Groundwater ............ NO
    Flow Routing ........... YES
    Ponding Allowed ........ NO
    Water Quality .......... NO
  Infiltration Method ...... HORTON
  Flow Routing Method ...... DYNWAVE
  Surcharge Method ......... EXTRAN
  Starting Date ............ 08/28/2015 08:00:00
  Ending Date .............. 08/28/2015 16:00:00
  Antecedent Dry Days ...... 8.0
  Report Time Step ......... 00:01:00
  Wet Time Step ............ 00:01:00
  Dry Time Step ............ 00:01:00
  Routing Time Step ........ 30.00 sec
  Variable Time Step ....... YES
  Maximum Trials ........... 8
  Number of Threads ........ 4
  Head Tolerance ........... 0.001500 m
  
  
  **************************        Volume         Depth
  Runoff Quantity Continuity     hectare-m            mm
  **************************     ---------       -------
  Total Precipitation ......         3.525       106.270
  Evaporation Loss .........         0.000         0.000
  Infiltration Loss ........         0.108         3.264
  Surface Runoff ...........         3.384       102.023
  Final Storage ............         0.033         0.999
  Continuity Error (%) .....        -0.016
  
  
  **************************        Volume        Volume
  Flow Routing Continuity        hectare-m      10^6 ltr
  **************************     ---------     ---------
  Dry Weather Inflow .......         0.000         0.000
  Wet Weather Inflow .......         3.384        33.841
  Groundwater Inflow .......         0.000         0.000
  RDII Inflow ..............         0.000         0.000
  External Inflow ..........         0.083         0.834
  External Outflow .........         2.489        24.893
  Flooding Loss ............         1.035        10.346
  Evaporation Loss .........         0.000         0.000
  Exfiltration Loss ........         0.000         0.000
  Initial Stored Volume ....         0.243         2.431
  Final Stored Volume ......         0.217         2.168
  Continuity Error (%) .....        -0.813
  
  
  *************************
  Highest Continuity Errors
  *************************
  Node YS02001583 (-5.30%)
  Node YS02001884 (4.06%)
  Node YS02001774 (1.52%)
  
  
  ***************************
  Time-Step Critical Elements
  ***************************
  Link WS02004404WS02004405 (31.80%)
  Link YS02001791YS02001793 (22.10%)
  Link WS02006252WS02006251 (8.82%)
  Link WS02006235WS02006234 (6.78%)
  Link WS02003066WSF200 (6.62%)
  
  
  ********************************
  Highest Flow Instability Indexes
  ********************************
  Link WS02006238WS02006235 (51)
  Link YS02001602YS02001605 (45)
  Link YS02001605YS02001607 (44)
  Link YS02001607YS02001610 (41)
  Link WS02006235WS02006234 (41)
  
  
  *************************
  Routing Time Step Summary
  *************************
  Minimum Time Step           :     0.01 sec
  Average Time Step           :     3.00 sec
  Maximum Time Step           :    30.00 sec
  Percent in Steady State     :     0.00
  Average Iterations per Step :     4.47
  Percent Not Converging      :    26.69
  
  
  ***************************
  Subcatchment Runoff Summary
  ***************************
  
  ------------------------------------------------------------------------------------------------------------------------------
                            Total      Total      Total      Total     Imperv       Perv      Total       Total     Peak  Runoff
                           Precip      Runon       Evap      Infil     Runoff     Runoff     Runoff      Runoff   Runoff   Coeff
  Subcatchment                 mm         mm         mm         mm         mm         mm         mm    10^6 ltr      LPS
  ------------------------------------------------------------------------------------------------------------------------------
  sub60                    106.27       0.00       0.00       1.95      92.32      10.80     103.12        1.36   272.41   0.970
  sub61                    106.27       0.00       0.00       2.84      87.08      15.23     102.31        1.88   376.96   0.963
  sub62                    106.27       0.00       0.00       1.30      96.48       7.20     103.69        2.84   564.46   0.976
  sub63                    106.27       0.00       0.00       5.26      74.49      25.56     100.05        2.27   440.86   0.941
  sub64                    106.27       0.00       0.00       2.66      89.12      13.29     102.41        2.46   479.47   0.964
  sub65                    106.27       0.00       0.00       2.30      91.20      11.52     102.72        2.83   547.07   0.967
  sub66                    106.27       0.00       0.00       6.45      74.37      24.37      98.73        4.60   776.30   0.929
  sub67                    106.27       0.00       0.00       1.24      96.54       7.27     103.80        1.93   389.28   0.977
  sub68                    106.27       0.00       0.00       2.35      90.21      12.53     102.74        2.83   564.56   0.967
  sub69                    106.27       0.00       0.00       2.15      90.22      13.79     104.01        3.85   736.18   0.979
  sub70                    106.27       0.00       0.00       7.03      69.96      29.11      99.07        2.86   455.12   0.932
  sub71                    106.27       0.00       0.00       1.34      96.44       7.16     103.60        2.71   526.91   0.975
  sub72                    106.27       0.00       0.00       1.19      97.42       6.25     103.67        1.43   268.16   0.975
  
  
  ******************
  Node Depth Summary
  ******************
  
  ---------------------------------------------------------------------------------
                                 Average  Maximum  Maximum  Time of Max    Reported
                                   Depth    Depth      HGL   Occurrence   Max Depth
  Node                 Type       Meters   Meters   Meters  days hr:min      Meters
  ---------------------------------------------------------------------------------
  WS02003060           JUNCTION     0.25     0.38     5.32     0  03:35        0.38
  WS02003066           JUNCTION     0.21     0.30     5.85     0  02:50        0.30
  WS02003067           JUNCTION     0.53     0.70     6.02     0  03:34        0.70
  WS02003069           JUNCTION     0.28     0.43     5.01     0  02:51        0.43
  WS02003072           JUNCTION     0.34     0.50     4.87     0  03:26        0.50
  WS02003073           JUNCTION     0.20     0.30     4.36     0  03:27        0.30
  WS02004401           JUNCTION     0.64     0.85     6.85     0  02:47        0.85
  WS02004402           JUNCTION     0.67     0.88     6.84     0  02:48        0.88
  WS02004403           JUNCTION     0.69     0.89     6.82     0  02:48        0.89
  WS02004404           JUNCTION     0.76     0.96     6.81     0  02:48        0.96
  WS02004405           JUNCTION     0.76     0.96     6.81     0  02:48        0.96
  WS02004406           JUNCTION     0.77     0.96     6.79     0  03:32        0.96
  WS02004407           JUNCTION     0.19     0.30     6.61     0  02:48        0.30
  WS02004409           JUNCTION     0.43     0.67     6.44     0  02:49        0.67
  WS02004410           JUNCTION     0.45     0.68     6.40     0  02:49        0.68
  WS02004411           JUNCTION     0.48     0.69     6.37     0  02:49        0.69
  WS02004412           JUNCTION     0.50     0.70     6.34     0  02:49        0.70
  WS02004413           JUNCTION     0.66     0.86     6.33     0  02:50        0.86
  WS02006109           JUNCTION     0.70     1.24     7.85     0  00:00        0.98
  WS02006110           JUNCTION     0.69     1.45     8.04     0  00:00        0.94
  WS02006111           JUNCTION     0.19     1.67     8.37     0  00:00        0.56
  WS02006112           JUNCTION     0.80     2.68     8.56     0  00:00        1.29
  WS02006113           JUNCTION     0.29     1.50     8.40     0  00:00        0.45
  WS02006115           JUNCTION     0.52     1.69     7.83     0  00:00        0.86
  WS02006116           JUNCTION     0.61     1.11     7.15     0  00:00        0.83
  WS02006228           JUNCTION     0.70     1.64     8.29     0  00:00        1.02
  WS02006229           JUNCTION     0.68     1.31     8.00     0  00:00        1.30
  WS02006230           JUNCTION     0.71     1.37     8.12     0  01:19        1.12
  WS02006231           JUNCTION     0.49     1.11     8.23     0  01:19        0.86
  WS02006232           JUNCTION     0.64     1.29     8.33     0  01:19        1.25
  WS02006234           JUNCTION     0.60     1.44     8.60     0  01:19        1.44
  WS02006235           JUNCTION     0.65     1.62     8.79     0  01:19        1.62
  WS02006238           JUNCTION     0.68     1.67     8.81     0  01:19        1.67
  WS02006239           JUNCTION     0.65     1.65     8.86     0  01:19        1.65
  WS02006240           JUNCTION     0.63     1.63     8.93     0  01:19        1.63
  WS02006242           JUNCTION     0.70     1.54     8.80     0  01:19        1.54
  WS02006243           JUNCTION     0.63     1.48     8.90     0  01:31        1.48
  WS02006245           JUNCTION     0.63     1.32     8.80     0  03:29        1.32
  WS02006247           JUNCTION     0.64     1.27     8.77     0  03:29        1.27
  WS02006248           JUNCTION     0.61     1.10     8.69     0  01:19        1.10
  WS02006249           JUNCTION     0.63     1.09     8.69     0  01:17        1.09
  WS02006251           JUNCTION     0.64     1.44     9.11     0  01:18        1.12
  WS02006252           JUNCTION     0.40     1.50     9.74     0  01:14        1.12
  WS02006256           JUNCTION     1.39     2.35     9.28     0  01:12        2.35
  WSF200               JUNCTION     0.18     0.29     5.52     0  03:35        0.29
  YS02001580           JUNCTION     0.32     1.05     9.59     0  01:12        0.82
  YS02001583           JUNCTION     0.35     1.14     9.64     0  01:12        0.98
  YS02001586           JUNCTION     0.52     1.13     9.30     0  01:12        1.13
  YS02001590           JUNCTION     0.67     1.40     9.26     0  01:09        1.40
  YS02001593           JUNCTION     0.60     1.46     9.32     0  01:09        1.40
  YS02001596           JUNCTION     0.79     1.80     9.22     0  01:08        1.80
  YS02001600           JUNCTION     0.91     1.87     9.00     0  01:12        1.87
  YS02001601           JUNCTION     1.11     2.06     8.90     0  01:08        2.06
  YS02001602           JUNCTION     0.98     1.87     8.77     0  01:12        1.87
  YS02001605           JUNCTION     0.92     1.78     8.68     0  01:12        1.78
  YS02001607           JUNCTION     0.86     1.68     8.53     0  01:12        1.68
  YS02001610           JUNCTION     0.90     1.68     8.48     0  01:12        1.68
  YS02001613           JUNCTION     0.86     1.70     8.54     0  01:12        1.70
  YS02001616           JUNCTION     0.79     1.61     8.52     0  01:12        1.61
  YS02001619           JUNCTION     0.77     1.61     8.54     0  01:12        1.58
  YS02001622           JUNCTION     0.76     1.62     8.52     0  01:12        1.62
  YS02001625           JUNCTION     1.01     1.78     8.38     0  01:12        1.78
  YS02001629           JUNCTION     0.94     1.85     8.40     0  01:12        1.85
  YS02001633           JUNCTION     1.02     2.08     8.53     0  01:19        2.08
  YS02001641           JUNCTION     0.99     2.10     8.54     0  01:19        2.10
  YS02001644           JUNCTION     0.97     1.92     8.35     0  01:19        1.92
  YS02001647           JUNCTION     0.76     1.90     8.51     0  01:59        1.90
  YS02001649           JUNCTION     0.86     2.05     8.44     0  01:59        2.05
  YS02001652           JUNCTION     0.72     1.94     8.54     0  02:38        1.94
  YS02001655           JUNCTION     0.58     1.65     8.50     0  02:38        1.65
  YS02001658           JUNCTION     0.44     1.96     9.10     0  01:19        1.07
  YS02001661           JUNCTION     0.36     0.81     8.22     0  02:12        0.81
  YS02001664           JUNCTION     0.11     0.25     8.18     0  01:27        0.25
  YS02001745           JUNCTION     0.23     0.65     8.17     0  01:38        0.64
  YS02001748           JUNCTION     0.43     1.24     8.32     0  01:39        1.07
  YS02001751           JUNCTION     0.52     1.34     8.22     0  01:39        1.27
  YS02001754           JUNCTION     0.66     1.76     8.37     0  02:11        1.76
  YS02001757           JUNCTION     0.89     2.21     8.47     0  01:59        2.21
  YS02001759           JUNCTION     0.82     2.21     8.57     0  01:59        2.21
  YS02001762           JUNCTION     0.81     2.15     8.55     0  01:28        2.15
  YS02001765           JUNCTION     0.78     2.10     8.55     0  01:28        2.10
  YS02001767           JUNCTION     0.76     2.03     8.52     0  01:28        2.03
  YS02001770           JUNCTION     0.78     1.95     8.44     0  01:15        1.95
  YS02001774           JUNCTION     0.84     2.05     8.47     0  01:19        2.05
  YS02001779           JUNCTION     0.64     1.68     8.37     0  01:15        1.68
  YS02001783           JUNCTION     0.50     1.39     7.53     0  01:31        1.39
  YS02001784           JUNCTION     0.48     1.29     7.36     0  02:11        1.29
  YS02001786           JUNCTION     0.38     0.88     6.91     0  01:16        0.86
  YS02001788           JUNCTION     0.28     0.62     6.59     0  01:25        0.62
  YS02001790           JUNCTION     0.33     0.72     6.36     0  01:32        0.71
  YS02001791           JUNCTION     0.20     0.43     5.90     0  01:55        0.43
  YS02001793           JUNCTION     0.11     0.30     5.13     0  01:49        0.30
  YS02001882           JUNCTION     0.62     1.83     8.55     0  01:14        1.83
  YS02001884           JUNCTION     0.71     1.93     8.55     0  02:12        1.93
  YS02001887           JUNCTION     0.79     2.00     8.54     0  01:31        2.00
  YS02001890           JUNCTION     0.81     1.81     8.32     0  01:16        1.81
  YS02001895           JUNCTION     0.59     1.67     8.42     0  02:12        1.67
  YS02001898           JUNCTION     0.59     1.73     8.46     0  02:12        1.73
  YS02001901           JUNCTION     0.71     1.79     8.40     0  02:12        1.79
  YS02001904           JUNCTION     0.69     1.85     8.48     0  01:31        1.85
  YS02001907           JUNCTION     1.00     1.96     8.25     0  01:16        1.96
  YS02001910           JUNCTION     0.81     1.98     8.49     0  01:14        1.82
  YS02001915           JUNCTION     0.62     2.00     8.72     0  01:14        1.66
  YS02001918           JUNCTION     0.41     1.81     8.88     0  01:16        1.37
  YS02001920           JUNCTION     0.47     2.10     9.11     0  01:16        1.60
  YS02001923           JUNCTION     0.33     2.02     9.28     0  01:16        1.27
  YS02001926           JUNCTION     0.31     1.90     9.35     0  01:16        1.15
  YS02001929           JUNCTION     0.19     1.77     9.47     0  01:16        0.97
  YS02006553           JUNCTION     1.00     1.98     8.27     0  01:31        1.98
  YS02006556           JUNCTION     0.96     2.04     8.35     0  02:11        2.04
  YS02006558           JUNCTION     1.00     2.06     8.33     0  01:53        2.06
  YS02006561           JUNCTION     0.32     0.93     7.59     0  01:16        0.89
  YS02163301           JUNCTION     0.97     2.03     8.55     0  01:19        2.03
  YS02163601           JUNCTION     1.05     2.08     8.48     0  01:19        2.08
  YS02164001           JUNCTION     0.98     2.10     8.56     0  01:19        2.10
  CC-1                 OUTFALL      0.00     0.00     0.00     0  00:00        0.00
  CC-2                 OUTFALL      0.00     0.00     0.00     0  00:00        0.00
  JK-1                 OUTFALL      0.00     0.00     0.00     0  00:00        0.00
  JK-2                 OUTFALL      0.00     0.00     0.00     0  00:00        0.00
  WSC                  OUTFALL      0.20     0.30     0.97     0  03:27        0.30
  CC-storage           STORAGE      1.27     2.10     7.60     0  02:59        2.10
  JK-storage           STORAGE      3.50     4.24     5.04     0  01:18        4.23
  
  
  *******************
  Node Inflow Summary
  *******************
  
  -------------------------------------------------------------------------------------------------
                                  Maximum  Maximum                  Lateral       Total        Flow
                                  Lateral    Total  Time of Max      Inflow      Inflow     Balance
                                   Inflow   Inflow   Occurrence      Volume      Volume       Error
  Node                 Type           LPS      LPS  days hr:min    10^6 ltr    10^6 ltr     Percent
  -------------------------------------------------------------------------------------------------
  WS02003060           JUNCTION     16.53   552.67     0  03:35       0.476        6.19       0.032
  WS02003066           JUNCTION      0.00   535.75     0  02:50           0        5.71       0.021
  WS02003067           JUNCTION      0.00   535.73     0  02:50           0        5.71       0.068
  WS02003069           JUNCTION      0.32   552.56     0  02:51     0.00922        6.19       0.054
  WS02003072           JUNCTION      0.00   552.32     0  03:26           0        6.19       0.100
  WS02003073           JUNCTION      1.82   554.06     0  03:26      0.0524        6.24       0.075
  WS02004401           JUNCTION      0.00  1786.04     0  00:00           0        5.82       0.180
  WS02004402           JUNCTION      0.00  1248.69     0  00:01           0        5.81       0.182
  WS02004403           JUNCTION      0.00   929.44     0  00:01           0         5.8       0.180
  WS02004404           JUNCTION      0.00   877.02     0  00:01           0        5.79       0.145
  WS02004405           JUNCTION      0.00   827.31     0  00:01           0        5.78       0.216
  WS02004406           JUNCTION      0.00   768.45     0  00:02           0        5.77       0.364
  WS02004407           JUNCTION      0.00   536.52     0  02:48           0        5.75       0.013
  WS02004409           JUNCTION      0.00   536.33     0  02:48           0        5.75       0.038
  WS02004410           JUNCTION      0.00   536.13     0  02:49           0        5.74       0.068
  WS02004411           JUNCTION      0.00   536.03     0  02:49           0        5.74       0.088
  WS02004412           JUNCTION      0.00   535.96     0  02:49           0        5.73       0.118
  WS02004413           JUNCTION      0.00   535.98     0  02:49           0        5.73       0.223
  WS02006109           JUNCTION      0.00  1446.81     0  00:00           0        5.71      -0.130
  WS02006110           JUNCTION      0.00   564.91     0  01:19           0        5.69      -0.966
  WS02006111           JUNCTION      0.00  1180.41     0  00:00           0        5.74      -0.745
  WS02006112           JUNCTION      0.00  2307.30     0  00:00           0        5.79       0.000
  WS02006113           JUNCTION      0.00   578.72     0  01:19           0        5.71      -0.669
  WS02006115           JUNCTION      0.00   953.54     0  00:00           0        5.76      -0.627
  WS02006116           JUNCTION      0.00  1264.47     0  00:00           0        5.79      -0.458
  WS02006228           JUNCTION      0.00   869.18     0  00:00           0        5.69      -0.037
  WS02006229           JUNCTION      0.00   560.52     0  01:19           0        5.68      -0.050
  WS02006230           JUNCTION     10.28   706.67     0  00:00       0.296        5.67       0.030
  WS02006231           JUNCTION      0.00   551.04     0  01:19           0        5.36      -0.026
  WS02006232           JUNCTION      0.00   549.91     0  01:19           0        5.36       0.108
  WS02006234           JUNCTION      0.00   546.49     0  01:19           0        5.35      -0.039
  WS02006235           JUNCTION      0.00   559.42     0  01:31           0        5.35       0.052
  WS02006238           JUNCTION      0.00   418.84     0  03:36           0        3.64      -0.036
  WS02006239           JUNCTION      0.00   420.05     0  03:36           0        3.64      -0.048
  WS02006240           JUNCTION      0.00   418.26     0  03:36           0        3.64      -0.013
  WS02006242           JUNCTION      0.00   418.87     0  03:36           0        3.64       0.033
  WS02006243           JUNCTION      0.00   418.22     0  03:36           0        3.64      -0.035
  WS02006245           JUNCTION      0.00   417.14     0  03:36           0        3.64       0.094
  WS02006247           JUNCTION      0.00   417.68     0  03:36           0        3.65       0.015
  WS02006248           JUNCTION      0.00   416.81     0  03:36           0        3.65       0.012
  WS02006249           JUNCTION      0.00   424.47     0  01:18           0        4.23       0.046
  WS02006251           JUNCTION      0.00   411.58     0  01:31           0        4.23      -0.006
  WS02006252           JUNCTION      0.00   400.00     0  01:14           0        4.23      -0.041
  WS02006256           JUNCTION      0.00   300.00     0  01:12           0        2.59       0.008
  WSF200               JUNCTION      0.00   535.79     0  02:50           0        5.71       0.004
  YS02001580           JUNCTION      0.00   142.46     0  01:12           0      0.0049       1.805
  YS02001583           JUNCTION      0.00   187.06     0  01:11           0      0.0161      -5.030
  YS02001586           JUNCTION    455.12   455.25     0  01:44        2.86        2.87       0.062
  YS02001590           JUNCTION      0.00   321.10     0  01:53           0        2.47      -0.020
  YS02001593           JUNCTION      0.00   319.75     0  01:59           0        2.47       0.001
  YS02001596           JUNCTION      0.00   318.39     0  02:11           0        2.47      -0.026
  YS02001600           JUNCTION      0.00   318.32     0  01:38           0        2.47       0.013
  YS02001601           JUNCTION    736.18  1053.82     0  01:27        3.85        6.32       0.002
  YS02001602           JUNCTION      0.00   589.02     0  01:11           0        3.44       0.011
  YS02001605           JUNCTION      0.00   589.05     0  01:11           0        3.04       0.019
  YS02001607           JUNCTION      0.00   588.99     0  01:11           0        3.04       0.056
  YS02001610           JUNCTION      0.00   575.76     0  01:11           0        3.04       0.081
  YS02001613           JUNCTION      0.00   556.63     0  01:12           0        2.01       0.082
  YS02001616           JUNCTION      0.00   520.36     0  01:12           0        2.02       0.020
  YS02001619           JUNCTION    776.30   960.43     0  01:12         4.6        6.62      -0.003
  YS02001622           JUNCTION      0.00   971.48     0  01:12           0        6.61      -0.005
  YS02001625           JUNCTION      0.00   935.48     0  01:12           0        6.61       0.196
  YS02001629           JUNCTION      0.00   935.49     0  01:12           0        3.49      -0.042
  YS02001633           JUNCTION    547.07  1330.22     0  01:14        2.83        6.32       0.044
  YS02001641           JUNCTION      0.00  1329.77     0  01:14           0        6.32       0.045
  YS02001644           JUNCTION    479.47  1714.38     0  01:14        2.46        8.77       0.037
  YS02001647           JUNCTION      0.00  1714.74     0  01:14           0        8.75       0.004
  YS02001649           JUNCTION      0.00  2075.33     0  01:14           0          11      -0.003
  YS02001652           JUNCTION      0.00   540.55     0  01:31           0        2.27      -0.117
  YS02001655           JUNCTION      0.00   551.71     0  01:31           0        2.27       0.119
  YS02001658           JUNCTION      0.00   712.78     0  01:18           0        2.27      -0.106
  YS02001661           JUNCTION      0.00   440.86     0  01:27           0        2.27       0.016
  YS02001664           JUNCTION    440.86   440.86     0  01:27        2.27        2.27      -0.013
  YS02001745           JUNCTION    272.41   308.35     0  01:38        1.35        1.36       0.105
  YS02001748           JUNCTION      0.00   511.45     0  01:32           0        1.36      -0.510
  YS02001751           JUNCTION      0.00   366.09     0  01:31           0        1.36       0.106
  YS02001754           JUNCTION      0.00   362.31     0  01:31           0        1.36      -0.169
  YS02001757           JUNCTION      0.00  2874.88     0  01:18           0        17.1       0.010
  YS02001759           JUNCTION    376.96   975.88     0  01:26        1.88        4.72      -0.021
  YS02001762           JUNCTION      0.00   607.79     0  01:16           0        2.84      -0.012
  YS02001765           JUNCTION      0.00   599.07     0  01:16           0        2.84      -0.019
  YS02001767           JUNCTION      0.00   602.08     0  01:16           0        2.84      -0.007
  YS02001770           JUNCTION    564.46   603.46     0  01:16        2.84        2.89      -0.036
  YS02001774           JUNCTION      0.00   230.60     0  01:15           0      0.0758       1.541
  YS02001779           JUNCTION      0.00   232.43     0  01:15           0      0.0234      -1.476
  YS02001783           JUNCTION      0.00  1148.93     0  01:24           0        7.81      -0.002
  YS02001784           JUNCTION      0.00  1149.22     0  01:31           0        7.81       0.001
  YS02001786           JUNCTION      0.00  1149.41     0  01:31           0        7.81       0.002
  YS02001788           JUNCTION      0.00  1152.95     0  01:31           0        7.81       0.001
  YS02001790           JUNCTION      0.00  1161.28     0  01:24           0        7.81       0.028
  YS02001791           JUNCTION      0.00  1275.08     0  01:33           0        7.81      -0.055
  YS02001793           JUNCTION      0.00  1231.41     0  01:31           0        7.81       0.003
  YS02001882           JUNCTION      0.00    90.06     0  01:13           0      0.0141       4.069
  YS02001884           JUNCTION      0.00   181.08     0  01:11           0      0.0519       4.232
  YS02001887           JUNCTION    389.28   406.44     0  01:13        1.93        1.97       0.234
  YS02001890           JUNCTION      0.00   407.82     0  01:13           0        1.92       0.218
  YS02001895           JUNCTION      0.00   407.96     0  01:13           0        1.92       0.161
  YS02001898           JUNCTION      0.00   402.05     0  01:14           0        1.91      -0.071
  YS02001901           JUNCTION      0.00   414.45     0  01:14           0        1.92       0.155
  YS02001904           JUNCTION      0.00   415.31     0  01:14           0        1.93       0.119
  YS02001907           JUNCTION      0.00  1276.04     0  01:17           0        6.07       0.270
  YS02001910           JUNCTION      0.00   888.69     0  01:17           0        4.13       0.158
  YS02001915           JUNCTION    526.91   888.08     0  01:17        2.71        4.17       0.017
  YS02001918           JUNCTION      0.00   427.01     0  01:17           0        1.48       0.010
  YS02001920           JUNCTION      0.00   427.28     0  01:17           0        1.46       0.025
  YS02001923           JUNCTION      0.00   365.18     0  01:17           0        1.45      -0.023
  YS02001926           JUNCTION      0.00   421.37     0  01:16           0        1.43       0.016
  YS02001929           JUNCTION    268.16   268.16     0  01:28        1.43        1.43      -0.014
  YS02006553           JUNCTION      0.00   780.99     0  02:18           0        5.06       0.223
  YS02006556           JUNCTION      0.00   780.40     0  02:18           0        5.09       0.144
  YS02006558           JUNCTION    564.56  1156.86     0  01:31        2.83        7.87       0.037
  YS02006561           JUNCTION      0.00  1152.39     0  01:31           0        7.81       0.001
  YS02163301           JUNCTION      0.00   906.97     0  01:14           0         3.5       0.044
  YS02163601           JUNCTION      0.00  1330.04     0  01:14           0         6.3       0.080
  YS02164001           JUNCTION      0.00  1330.65     0  01:14           0        6.31       0.037
  CC-1                 OUTFALL       0.00   683.00     0  01:18           0        6.85       0.000
  CC-2                 OUTFALL       0.00   683.00     0  01:24           0        6.63       0.000
  JK-1                 OUTFALL       0.00  1000.00     0  01:12           0        5.18       0.000
  JK-2                 OUTFALL       0.00     0.00     0  00:00           0           0       0.000 ltr
  WSC                  OUTFALL       0.00   554.00     0  03:27           0        6.23       0.000
  CC-storage           STORAGE       0.00  2878.84     0  01:18           0        19.3      -0.127
  JK-storage           STORAGE       0.00  1204.80     0  01:33           0        7.96       0.066
  
  
  **********************
  Node Surcharge Summary
  **********************
  
  Surcharging occurs when water rises above the top of the highest conduit.
  ---------------------------------------------------------------------
                                               Max. Height   Min. Depth
                                   Hours       Above Crown    Below Rim
  Node                 Type      Surcharged         Meters       Meters
  ---------------------------------------------------------------------
  WS02006109           JUNCTION        2.84          0.416        1.404
  WS02006110           JUNCTION        2.28          0.544        1.306
  WS02006111           JUNCTION        0.01          0.856        1.014
  WS02006112           JUNCTION        2.23          1.680        0.000
  WS02006113           JUNCTION        0.01          0.705        1.225
  WS02006115           JUNCTION        0.01          0.682        1.568
  WS02006116           JUNCTION        0.01          0.053        2.237
  WS02006228           JUNCTION        2.83          0.810        1.390
  WS02006229           JUNCTION        2.84          0.510        1.940
  WS02006230           JUNCTION        2.26          0.294        1.276
  WS02006231           JUNCTION        2.30          0.397        1.133
  WS02006232           JUNCTION        2.85          0.593        0.887
  WS02006234           JUNCTION        2.36          0.718        0.522
  WS02006235           JUNCTION        2.83          0.912        0.378
  WS02006238           JUNCTION        2.84          0.947        0.483
  WS02006239           JUNCTION        2.82          0.911        0.379
  WS02006240           JUNCTION        2.82          0.924        0.466
  WS02006242           JUNCTION        2.84          0.805        0.015
  WS02006243           JUNCTION        2.82          0.770        0.000
  WS02006245           JUNCTION        2.81          0.609        0.241
  WS02006247           JUNCTION        2.81          0.560        0.200
  WS02006248           JUNCTION        2.81          0.380        0.000
  WS02006249           JUNCTION        2.80          0.390        0.000
  WS02006251           JUNCTION        2.31          0.415        0.765
  WS02006252           JUNCTION        2.86          1.100        0.000
  WS02006256           JUNCTION        3.44          2.050        0.000
  YS02001580           JUNCTION        1.83          0.450        0.000
  YS02001583           JUNCTION        1.83          0.500        0.000
  YS02001586           JUNCTION        1.95          0.510        0.000
  YS02001590           JUNCTION        2.00          0.750        0.000
  YS02001593           JUNCTION        2.00          0.840        0.000
  YS02001596           JUNCTION        2.07          1.070        0.000
  YS02001600           JUNCTION        2.15          1.190        0.000
  YS02001601           JUNCTION        2.34          1.440        0.000
  YS02001602           JUNCTION        2.29          1.270        0.000
  YS02001605           JUNCTION        2.27          1.180        0.000
  YS02001607           JUNCTION        2.00          0.680        0.000
  YS02001610           JUNCTION        2.02          0.680        0.000
  YS02001613           JUNCTION        2.00          0.700        0.000
  YS02001616           JUNCTION        1.97          0.610        0.000
  YS02001619           JUNCTION        1.97          0.610        0.000
  YS02001622           JUNCTION        1.97          0.620        0.000
  YS02001625           JUNCTION        2.10          0.780        0.000
  YS02001629           JUNCTION        1.94          0.470        0.000
  YS02001633           JUNCTION        2.15          1.060        0.000
  YS02001641           JUNCTION        2.15          1.100        0.000
  YS02001644           JUNCTION        2.14          0.920        0.000
  YS02001647           JUNCTION        1.98          0.900        0.000
  YS02001649           JUNCTION        2.11          1.050        0.000
  YS02001652           JUNCTION        1.94          0.909        0.221
  YS02001655           JUNCTION        1.81          0.645        0.555
  YS02001658           JUNCTION        1.02          0.958        0.342
  YS02001748           JUNCTION        0.01          0.163        1.027
  YS02001751           JUNCTION        1.74          0.339        0.861
  YS02001754           JUNCTION        1.89          0.714        0.436
  YS02001757           JUNCTION        2.18          1.210        0.000
  YS02001759           JUNCTION        2.11          1.210        0.000
  YS02001762           JUNCTION        2.07          1.150        0.000
  YS02001765           JUNCTION        2.04          1.100        0.000
  YS02001767           JUNCTION        2.01          1.030        0.000
  YS02001770           JUNCTION        1.99          0.920        0.000
  YS02001774           JUNCTION        2.06          1.050        0.000
  YS02001779           JUNCTION        1.87          0.680        0.000
  YS02001783           JUNCTION        1.79          0.589        1.011
  YS02001784           JUNCTION        1.51          0.489        1.001
  YS02001786           JUNCTION        1.14          0.081        1.349
  YS02001882           JUNCTION        1.29          0.830        0.000
  YS02001884           JUNCTION        1.34          0.870        0.000
  YS02001887           JUNCTION        1.77          0.950        0.000
  YS02001890           JUNCTION        1.80          0.760        0.000
  YS02001895           JUNCTION        1.26          0.673        0.077
  YS02001898           JUNCTION        1.24          0.699        0.041
  YS02001901           JUNCTION        1.49          0.794        0.076
  YS02001904           JUNCTION        1.41          0.850        0.000
  YS02001907           JUNCTION        1.94          0.950        0.000
  YS02001910           JUNCTION        1.82          0.980        0.120
  YS02001915           JUNCTION        1.29          1.000        0.000
  YS02001918           JUNCTION        1.11          0.810        0.000
  YS02001920           JUNCTION        1.13          1.103        0.037
  YS02001923           JUNCTION        0.01          0.814        0.006
  YS02001926           JUNCTION        0.01          0.900        0.000
  YS02001929           JUNCTION        0.01          0.773        0.007
  YS02006553           JUNCTION        1.95          0.982        0.208
  YS02006556           JUNCTION        1.88          0.995        0.355
  YS02006558           JUNCTION        1.88          0.964        0.436
  YS02006561           JUNCTION        1.07          0.125        1.025
  YS02163301           JUNCTION        2.13          1.030        0.000
  YS02163601           JUNCTION        2.19          1.080        0.000
  YS02164001           JUNCTION        2.14          1.100        0.000
  
  
  *********************
  Node Flooding Summary
  *********************
  
  Flooding refers to all water that overflows a node, whether it ponds or not.
  --------------------------------------------------------------------------
                                                             Total   Maximum
                                 Maximum   Time of Max       Flood    Ponded
                        Hours       Rate    Occurrence      Volume     Depth
  Node                 Flooded       LPS   days hr:min    10^6 ltr    Meters
  --------------------------------------------------------------------------
  WS02006112              0.01   1405.86      0  00:00       0.047     0.000
  WS02006243              0.01      0.36      0  01:31       0.000     0.000
  WS02006248              0.01     10.45      0  01:19       0.000     0.000
  WS02006249              2.30    103.00      0  01:18       0.584     0.000
  WS02006252              0.01      0.91      0  01:14       0.000     0.000
  WS02006256              2.40    265.29      0  01:12       0.888     0.000
  YS02001580              0.01    131.58      0  01:12       0.000     0.000
  YS02001583              0.01    108.77      0  01:12       0.000     0.000
  YS02001586              1.32    138.18      0  01:31       0.393     0.000
  YS02001590              0.01     79.14      0  01:09       0.000     0.000
  YS02001593              0.01     42.82      0  01:09       0.000     0.000
  YS02001596              0.01     65.33      0  01:08       0.000     0.000
  YS02001600              0.01     14.37      0  01:31       0.000     0.000
  YS02001601              1.90    655.99      0  01:27       2.876     0.000
  YS02001602              1.87     63.34      0  02:11       0.404     0.000
  YS02001605              0.01      3.97      0  01:12       0.000     0.000
  YS02001607              0.01     86.62      0  01:12       0.000     0.000
  YS02001610              1.79    293.27      0  01:31       1.025     0.000
  YS02001613              0.01     68.34      0  01:12       0.000     0.000
  YS02001616              0.01    145.08      0  01:12       0.000     0.000
  YS02001619              0.01    185.11      0  01:12       0.000     0.000
  YS02001622              0.01    224.55      0  01:12       0.000     0.000
  YS02001625              1.80    762.08      0  01:28       3.114     0.000
  YS02001629              0.05    280.72      0  01:12       0.005     0.000
  YS02001633              0.01      0.79      0  01:19       0.000     0.000
  YS02001641              0.01      1.35      0  02:38       0.000     0.000
  YS02001644              0.02    116.54      0  01:31       0.003     0.000
  YS02001647              0.01      1.14      0  02:38       0.000     0.000
  YS02001649              0.01      1.23      0  01:59       0.000     0.000
  YS02001757              0.01      0.95      0  01:59       0.000     0.000
  YS02001759              0.01      0.97      0  02:38       0.000     0.000
  YS02001762              0.01      3.27      0  01:28       0.000     0.000
  YS02001765              0.01      3.44      0  01:28       0.000     0.000
  YS02001767              0.01      2.75      0  01:28       0.000     0.000
  YS02001770              0.01     35.79      0  01:15       0.000     0.000
  YS02001774              0.01      4.42      0  01:28       0.000     0.000
  YS02001779              0.02    152.04      0  01:15       0.002     0.000
  YS02001882              0.01     37.16      0  01:14       0.000     0.000
  YS02001884              0.01      1.03      0  02:12       0.000     0.000
  YS02001887              0.01      0.88      0  01:31       0.000     0.000
  YS02001890              0.03     59.02      0  01:19       0.002     0.000
  YS02001904              0.01      0.76      0  01:31       0.000     0.000
  YS02001907              1.02    657.08      0  01:17       1.018     0.000
  YS02001915              0.01     91.73      0  01:14       0.000     0.000
  YS02001918              0.01     52.81      0  01:16       0.000     0.000
  YS02001926              0.01     21.36      0  01:16       0.000     0.000
  YS02163301              0.01      0.38      0  01:19       0.000     0.000
  YS02163601              0.01     61.89      0  01:31       0.000     0.000
  YS02164001              0.01      1.60      0  01:19       0.000     0.000
  
  
  **********************
  Storage Volume Summary
  **********************
  
  --------------------------------------------------------------------------------------------------
                         Average     Avg  Evap Exfil       Maximum     Max    Time of Max    Maximum
                          Volume    Pcnt  Pcnt  Pcnt        Volume    Pcnt     Occurrence    Outflow
  Storage Unit           1000 m3    Full  Loss  Loss       1000 m3    Full    days hr:min        LPS
  --------------------------------------------------------------------------------------------------
  CC-storage               3.551      55     0     0         5.844      91       0  02:59    1766.00
  JK-storage               0.176      60     0     0         0.213      73       0  01:18    1300.00
  
  
  ***********************
  Outfall Loading Summary
  ***********************
  
  -----------------------------------------------------------
                         Flow       Avg       Max       Total
                         Freq      Flow      Flow      Volume
  Outfall Node           Pcnt       LPS       LPS    10^6 ltr
  -----------------------------------------------------------
  CC-1                  54.39    683.00    683.00       6.850
  CC-2                  52.60    683.00    683.00       6.629
  JK-1                  30.80   1000.00   1000.00       5.183
  JK-2                   0.00      0.00      0.00       0.000
  WSC                   99.99    312.41    554.00       6.231
  -----------------------------------------------------------
  System                47.55   2678.41    554.00      24.893
  
  
  ********************
  Link Flow Summary
  ********************
  
  -----------------------------------------------------------------------------
                                 Maximum  Time of Max   Maximum    Max/    Max/
                                  |Flow|   Occurrence   |Veloc|    Full    Full
  Link                 Type          LPS  days hr:min     m/sec    Flow   Depth
  -----------------------------------------------------------------------------
  1                    CONDUIT    554.00     0  03:27      2.83    0.19    0.30
  WS02003060WS02003069 CONDUIT    552.24     0  02:51      1.64    0.22    0.34
  WS02003066WSF200     CONDUIT    535.79     0  02:50      2.85    0.09    0.22
  WS02003067WS02003066 CONDUIT    535.75     0  02:50      1.21    0.17    0.42
  WS02003069WS02003072 CONDUIT    552.32     0  03:26      1.37    0.27    0.39
  WS02003072WS02003073 CONDUIT    552.24     0  03:26      1.43    1.19    0.37
  WS02004401WS02004402 CONDUIT   1248.69     0  00:01      2.52    1.50    0.86
  WS02004402WS02004403 CONDUIT    929.44     0  00:01      2.21    1.34    0.88
  WS02004403WS02004404 CONDUIT    877.02     0  00:01      2.01    0.63    0.93
  WS02004404WS02004405 CONDUIT    827.31     0  00:01      2.30    8.11    0.96
  WS02004405WS02004406 CONDUIT    768.45     0  00:02      2.19    1.52    0.96
  WS02004406WS02004407 CONDUIT    536.52     0  02:48      1.04    0.24    0.63
  WS02004407WS02004409 CONDUIT    536.33     0  02:48      2.06    0.19    0.48
  WS02004409WS02004410 CONDUIT    536.13     0  02:49      1.39    0.69    0.67
  WS02004410WS02004411 CONDUIT    536.03     0  02:49      1.32    0.73    0.69
  WS02004411WS02004412 CONDUIT    535.96     0  02:49      1.28    0.76    0.69
  WS02004412WS02004413 CONDUIT    535.98     0  02:49      1.25    0.36    0.78
  WS02004413WS02003067 CONDUIT    535.73     0  02:50      1.11    0.23    0.59
  WS02006109WS02006110 CONDUIT   1446.81     0  00:00      2.88    2.78    1.00
  WS02006110WS02006113 CONDUIT    578.72     0  01:19      1.39    0.53    1.00
  WS02006111WS02006112 CONDUIT   2307.30     0  00:00      9.18    1.10    1.00
  WS02006112WS02006115 CONDUIT    953.54     0  00:00      1.24    0.56    1.00
  WS02006113WS02006111 CONDUIT   1180.41     0  00:00      2.46    1.41    1.00
  WS02006115WS02006116 CONDUIT   1264.47     0  00:00      1.74    1.62    1.00
  WS02006116WS02004401 CONDUIT   1786.04     0  00:00      2.94    2.46    0.84
  WS02006228WS02006109 CONDUIT    869.18     0  00:00      1.91    3.80    1.00
  WS02006229WS02006228 CONDUIT    563.75     0  01:19      1.12    1.87    1.00
  WS02006230WS02006229 CONDUIT    696.39     0  00:00      1.89   15.50    1.00
  WS02006231WS02006230 CONDUIT    547.51     0  01:19      1.91    8.31    1.00
  WS02006232WS02006231 CONDUIT    551.04     0  01:19      1.80    1.15    1.00
  WS02006234WS02006232 CONDUIT    549.91     0  01:19      1.43    1.11    1.00
  WS02006235WS02006234 CONDUIT    546.49     0  01:19      1.42    5.77    1.00
  WS02006238WS02006235 CONDUIT    419.27     0  03:36      1.11    0.94    1.00
  WS02006239WS02006238 CONDUIT    418.84     0  03:36      1.09    1.34    1.00
  WS02006240WS02006239 CONDUIT    420.05     0  03:36      1.09    1.32    1.00
  WS02006242WS02006240 CONDUIT    418.26     0  03:36      1.09    1.66    1.00
  WS02006243WS02006242 CONDUIT    418.87     0  03:36      1.16    0.89    1.00
  WS02006245WS02006243 CONDUIT    418.22     0  03:36      1.15    1.24    1.00
  WS02006247WS02006245 CONDUIT    417.14     0  03:36      1.20    3.31    1.00
  WS02006248WS02006247 CONDUIT    417.68     0  03:36      1.26    0.91    1.00
  WS02006249WS02006248 CONDUIT    416.81     0  03:36      1.32    2.28    1.00
  WS02006251WS02006249 CONDUIT    424.47     0  01:18      1.73    1.22    1.00
  WS02006252WS02006251 CONDUIT    411.58     0  01:31     16.31    1.51    1.00
  WS02006256WS02006235 CONDUIT    254.77     0  01:12      3.60    2.70    1.00
  WSF200WS02003060     CONDUIT    536.14     0  03:35      2.06    0.12    0.28
  YS02001580YS02001583 CONDUIT    142.46     0  01:12      0.74    0.55    1.00
  YS02001583YS02001586 CONDUIT    157.19     0  01:11      0.75    0.24    1.00
  YS02001586YS02001590 CONDUIT    321.10     0  01:53      1.30    0.56    1.00
  YS02001590YS02001593 CONDUIT    319.75     0  01:59      1.13    2.01    1.00
  YS02001593YS02001596 CONDUIT    318.39     0  02:11      1.65    0.50    1.00
  YS02001596YS02001600 CONDUIT    318.32     0  01:38      1.22    0.62    1.00
  YS02001600YS02001601 CONDUIT    318.71     0  01:53      1.13    0.55    1.00
  YS02001601YS02001602 CONDUIT    589.02     0  01:11      2.08    2.13    1.00
  YS02001602YS02001605 CONDUIT    589.05     0  01:11      2.08   12.47    1.00
  YS02001605YS02001607 CONDUIT    588.99     0  01:11      2.08    3.23    1.00
  YS02001607YS02001610 CONDUIT    575.76     0  01:11      0.84    0.55    1.00
  YS02001610YS02001613 CONDUIT    556.63     0  01:12      0.78    0.64    1.00
  YS02001613YS02001616 CONDUIT    520.36     0  01:12      0.83    0.45    1.00
  YS02001616YS02001619 CONDUIT    530.85     0  01:12      0.88    0.92    1.00
  YS02001619YS02001622 CONDUIT    971.48     0  01:12      1.81    1.43    1.00
  YS02001622YS02001625 CONDUIT    935.48     0  01:12      1.19    0.50    1.00
  YS02001625YS02001629 CONDUIT    935.49     0  01:12      1.19    0.44    1.00
  YS02001629YS02163301 CONDUIT    906.97     0  01:14      1.15    1.12    1.00
  YS02001633YS02163601 CONDUIT   1330.04     0  01:14      1.69    1.40    1.00
  YS02001641YS02001644 CONDUIT   1330.91     0  01:14      1.69    4.30    1.00
  YS02001644YS02001647 CONDUIT   1714.74     0  01:14      2.24    1.01    1.00
  YS02001647YS02001649 CONDUIT   1716.90     0  01:15      2.30    0.91    1.00
  YS02001649YS02001757 CONDUIT   2004.96     0  01:14      2.56    1.22    1.00
  YS02001652YS02001649 CONDUIT    523.65     0  01:31      1.38    0.26    1.00
  YS02001655YS02001652 CONDUIT    540.55     0  01:31      1.85    0.26    1.00
  YS02001658YS02001655 CONDUIT    551.71     0  01:31      2.02    0.23    1.00
  YS02001661YS02001658 CONDUIT    712.78     0  01:18      2.25    0.28    0.87
  YS02001664YS02001661 CONDUIT    440.86     0  01:27      2.11    0.14    0.52
  YS02001745YS02001748 CONDUIT    511.45     0  01:32      2.10    0.20    0.79
  YS02001748YS02001751 CONDUIT    366.09     0  01:31      1.74    0.18    1.00
  YS02001751YS02001754 CONDUIT    362.31     0  01:31      1.71    0.17    1.00
  YS02001754YS02001757 CONDUIT    347.45     0  01:31      1.08    0.14    1.00
  YS02001757CaochengTiaoxuchi CONDUIT   2878.84     0  01:18      3.67    1.25    1.00
  YS02001759YS02001757 CONDUIT    979.72     0  01:26      1.43    0.70    1.00
  YS02001762YS02001759 CONDUIT    614.59     0  01:16      0.78    0.71    1.00
  YS02001765YS02001762 CONDUIT    607.79     0  01:16      0.89    0.57    1.00
  YS02001767YS02001765 CONDUIT    599.07     0  01:16      1.00    0.75    1.00
  YS02001770YS02001767 CONDUIT    602.08     0  01:16      0.98    2.38    1.00
  YS02001774YS02001770 CONDUIT    230.60     0  01:15      0.76    0.15    1.00
  YS02001779YS02001774 CONDUIT    232.43     0  01:15      0.30    0.12    1.00
  YS02001783YS02001784 CONDUIT   1149.22     0  01:31      2.29    1.58    1.00
  YS02001784YS02001785 CONDUIT   1149.41     0  01:31      2.29    2.67    1.00
  YS02001786YS02001788 CONDUIT   1152.95     0  01:31      2.46    2.22    0.89
  YS02001788YS02001790 CONDUIT   1161.28     0  01:24      2.70    0.86    0.83
  YS02001790YS02001791 CONDUIT   1275.08     0  01:33      3.43    1.39    0.70
  YS02001791YS02001793 CONDUIT   1231.41     0  01:31      6.28    0.53    0.45
  YS02001793JiankangQianchi CONDUIT   1204.80     0  01:33      2.24    0.10    0.65
  YS02001882YS02001884 CONDUIT     90.06     0  01:13      0.45    0.10    1.00
  YS02001884YS02001887 CONDUIT    181.08     0  01:11      0.41    0.24    1.00
  YS02001887YS02001890 CONDUIT    407.82     0  01:13      0.54    0.70    1.00
  YS02001890YS02001895 CONDUIT    407.96     0  01:13      0.53    0.19    1.00
  YS02001895YS02001898 CONDUIT    402.05     0  01:14      0.79    0.70    1.00
  YS02001898YS02001901 CONDUIT    414.45     0  01:14      0.78    0.27    1.00
  YS02001901YS02001904 CONDUIT    415.31     0  01:14      0.53    0.64    1.00
  YS02001904YS02001907 CONDUIT    417.53     0  01:14      0.53    0.15    1.00
  YS02001907YS02006553 CONDUIT    780.99     0  02:18      0.87    0.92    1.00
  YS02001910YS02001907 CONDUIT    888.29     0  01:17      1.13    0.50    1.00
  YS02001915YS02001910 CONDUIT    888.69     0  01:17      1.34    0.44    1.00
  YS02001918YS02001915 CONDUIT    427.17     0  01:17      0.54    0.24    1.00
  YS02001920YS02001918 CONDUIT    427.01     0  01:17      0.73    0.41    1.00
  YS02001923YS02001920 CONDUIT    427.28     0  01:17      0.85    0.19    1.00
  YS02001926YS02001923 CONDUIT    365.18     0  01:17      0.94    0.52    1.00
  YS02001929YS02001926 CONDUIT    355.68     0  01:17      1.07    0.17    1.00
  YS02006553YS02006556 CONDUIT    780.40     0  02:18      0.99    0.67    1.00
  YS02006556YS02006558 CONDUIT    782.21     0  02:18      1.00    0.62    1.00
  YS02006558YS02006561 CONDUIT   1152.39     0  01:31      4.08    2.55    1.00
  YS02006561YS02001783 CONDUIT   1148.93     0  01:24      2.29    0.60    1.00
  YS02163301YS02001633 CONDUIT    906.99     0  01:14      1.15    0.85    1.00
  YS02163601YS02164001 CONDUIT   1330.65     0  01:14      1.69    1.18    1.00
  YS02164001YS02001641 CONDUIT   1329.77     0  01:14      1.69    1.82    1.00
  CC-R1                PUMP       683.00     0  01:18              1.00
  CC-R2                PUMP       683.00     0  01:24              1.00
  CC-S1                PUMP       200.00     0  01:04              1.00
  CC-S2                PUMP       200.00     0  01:14              1.00
  JK-R1                PUMP      1000.00     0  01:12              1.00
  JK-R2                PUMP         0.00     0  00:00              0.00
  JK-S                 PUMP       300.00     0  01:12              1.00
  
  
  ***************************
  Flow Classification Summary
  ***************************
  
  -------------------------------------------------------------------------------------
                      Adjusted    ---------- Fraction of Time in Flow Class ---------- 
                       /Actual         Up    Down  Sub   Sup   Up    Down  Norm  Inlet 
  Conduit               Length    Dry  Dry   Dry   Crit  Crit  Crit  Crit  Ltd   Ctrl  
  -------------------------------------------------------------------------------------
  1                       1.00   0.00  0.00  0.00  0.00  1.00  0.00  0.00  0.66  0.00
  WS02003060WS02003069    1.00   0.00  0.00  0.00  0.98  0.02  0.00  0.00  0.63  0.00
  WS02003066WSF200        1.00   0.01  0.00  0.00  0.00  0.99  0.00  0.00  0.69  0.00
  WS02003067WS02003066    1.00   0.01  0.00  0.00  0.99  0.00  0.00  0.00  0.00  0.00
  WS02003069WS02003072    1.00   0.00  0.00  0.00  1.00  0.00  0.00  0.00  0.63  0.00
  WS02003072WS02003073    1.00   0.00  0.00  0.00  0.00  0.00  0.00  1.00  0.00  0.00
  WS02004401WS02004402    1.00   0.00  0.00  0.00  1.00  0.00  0.00  0.00  0.00  0.00
  WS02004402WS02004403    1.00   0.00  0.00  0.00  1.00  0.00  0.00  0.00  0.00  0.00
  WS02004403WS02004404    1.00   0.00  0.00  0.00  1.00  0.00  0.00  0.00  0.00  0.00
  WS02004404WS02004405    1.00   0.00  0.00  0.00  1.00  0.00  0.00  0.00  0.00  0.00
  WS02004405WS02004406    1.00   0.00  0.00  0.00  1.00  0.00  0.00  0.00  0.00  0.00
  WS02004406WS02004407    1.00   0.00  0.00  0.00  1.00  0.00  0.00  0.00  0.00  0.00
  WS02004407WS02004409    1.00   0.00  0.00  0.00  0.98  0.01  0.00  0.00  0.99  0.00
  WS02004409WS02004410    1.00   0.00  0.00  0.00  1.00  0.00  0.00  0.00  0.00  0.00
  WS02004410WS02004411    1.00   0.00  0.00  0.00  1.00  0.00  0.00  0.00  0.00  0.00
  WS02004411WS02004412    1.00   0.00  0.00  0.00  0.99  0.00  0.00  0.00  0.00  0.00
  WS02004412WS02004413    1.00   0.01  0.00  0.00  0.99  0.00  0.00  0.00  0.00  0.00
  WS02004413WS02003067    1.00   0.01  0.00  0.00  0.00  0.00  0.99  0.00  0.00  0.00
  WS02006109WS02006110    1.00   0.00  0.00  0.00  1.00  0.00  0.00  0.00  0.00  0.00
  WS02006110WS02006113    1.00   0.00  0.00  0.00  1.00  0.00  0.00  0.00  0.00  0.00
  WS02006111WS02006112    1.00   0.00  0.00  0.00  1.00  0.00  0.00  0.00  1.00  0.00
  WS02006112WS02006115    1.00   0.00  0.00  0.00  1.00  0.00  0.00  0.00  0.00  0.00
  WS02006113WS02006111    1.00   0.00  0.00  0.00  0.00  1.00  0.00  0.00  0.11  0.00
  WS02006115WS02006116    1.00   0.00  0.00  0.00  1.00  0.00  0.00  0.00  0.00  0.00
  WS02006116WS02004401    1.00   0.00  0.00  0.00  1.00  0.00  0.00  0.00  0.00  0.00
  WS02006228WS02006109    1.00   0.00  0.00  0.00  1.00  0.00  0.00  0.00  0.00  0.00
  WS02006229WS02006228    1.00   0.00  0.00  0.00  1.00  0.00  0.00  0.00  0.00  0.00
  WS02006230WS02006229    1.00   0.00  0.00  0.00  1.00  0.00  0.00  0.00  0.01  0.00
  WS02006231WS02006230    1.00   0.00  0.00  0.00  0.57  0.00  0.43  0.00  0.00  0.00
  WS02006232WS02006231    1.00   0.00  0.00  0.00  0.98  0.00  0.02  0.00  0.00  0.00
  WS02006234WS02006232    1.00   0.00  0.00  0.00  1.00  0.00  0.00  0.00  0.45  0.00
  WS02006235WS02006234    1.00   0.00  0.00  0.00  0.69  0.00  0.31  0.00  0.00  0.00
  WS02006238WS02006235    1.00   0.00  0.00  0.00  0.99  0.00  0.00  0.00  0.00  0.00
  WS02006239WS02006238    1.00   0.00  0.01  0.00  0.98  0.00  0.00  0.00  0.55  0.00
  WS02006240WS02006239    1.00   0.10  0.00  0.00  0.65  0.00  0.00  0.25  0.01  0.00
  WS02006242WS02006240    1.00   0.09  0.01  0.00  0.77  0.00  0.14  0.00  0.00  0.00
  WS02006243WS02006242    1.00   0.08  0.03  0.00  0.86  0.00  0.00  0.03  0.47  0.00
  WS02006245WS02006243    1.00   0.08  0.00  0.00  0.68  0.00  0.00  0.24  0.00  0.00
  WS02006247WS02006245    1.00   0.08  0.00  0.00  0.73  0.00  0.00  0.19  0.00  0.00
  WS02006248WS02006247    1.00   0.07  0.00  0.00  0.73  0.00  0.00  0.20  0.06  0.00
  WS02006249WS02006248    1.00   0.07  0.00  0.00  0.66  0.00  0.27  0.00  0.00  0.00
  WS02006251WS02006249    1.00   0.07  0.18  0.00  0.75  0.00  0.00  0.00  0.48  0.00
  WS02006252WS02006251    1.00   0.07  0.28  0.00  0.47  0.00  0.18  0.00  0.00  0.00
  WS02006256WS02006235    1.00   0.00  0.00  0.00  1.00  0.00  0.00  0.00  0.00  0.00
  WSF200WS02003060        1.00   0.00  0.01  0.00  0.36  0.63  0.00  0.00  0.61  0.00
  YS02001580YS02001583    1.00   0.12  0.31  0.00  0.57  0.00  0.00  0.00  0.60  0.00
  YS02001583YS02001586    1.00   0.20  0.17  0.00  0.63  0.00  0.01  0.00  0.61  0.00
  YS02001586YS02001590    1.00   0.07  0.00  0.00  0.74  0.02  0.00  0.17  0.26  0.00
  YS02001590YS02001593    1.00   0.07  0.00  0.00  0.47  0.00  0.46  0.00  0.00  0.00
  YS02001593YS02001596    1.00   0.07  0.00  0.00  0.49  0.01  0.00  0.43  0.01  0.00
  YS02001596YS02001600    1.00   0.07  0.00  0.00  0.55  0.01  0.00  0.36  0.03  0.00
  YS02001600YS02001601    1.00   0.07  0.00  0.00  0.93  0.00  0.00  0.00  0.53  0.00
  YS02001601YS02001602    1.00   0.07  0.00  0.00  0.93  0.00  0.00  0.00  0.00  0.00
  YS02001602YS02001605    1.00   0.07  0.00  0.00  0.93  0.00  0.00  0.00  0.00  0.00
  YS02001605YS02001607    1.00   0.07  0.00  0.00  0.93  0.00  0.00  0.00  0.00  0.00
  YS02001607YS02001610    1.00   0.07  0.00  0.00  0.93  0.00  0.00  0.00  0.00  0.00
  YS02001610YS02001613    1.00   0.07  0.00  0.00  0.93  0.00  0.00  0.00  0.00  0.00
  YS02001613YS02001616    1.00   0.07  0.00  0.00  0.93  0.00  0.00  0.00  0.00  0.00
  YS02001616YS02001619    1.00   0.07  0.00  0.00  0.93  0.00  0.00  0.00  0.00  0.00
  YS02001619YS02001622    1.00   0.07  0.00  0.00  0.92  0.02  0.00  0.00  0.25  0.00
  YS02001622YS02001625    1.00   0.07  0.00  0.00  0.93  0.01  0.00  0.00  0.01  0.00
  YS02001625YS02001629    1.00   0.07  0.02  0.00  0.52  0.00  0.39  0.00  0.00  0.00
  YS02001629YS02163301    1.00   0.07  0.00  0.00  0.93  0.00  0.00  0.00  0.00  0.00
  YS02001633YS02163601    1.00   0.07  0.00  0.00  0.93  0.00  0.00  0.00  0.00  0.00
  YS02001641YS02001644    1.00   0.07  0.00  0.00  0.93  0.00  0.00  0.00  0.00  0.00
  YS02001644YS02001647    1.00   0.07  0.00  0.00  0.93  0.00  0.00  0.00  0.00  0.00
  YS02001647YS02001649    1.00   0.07  0.00  0.00  0.76  0.17  0.00  0.00  0.54  0.00
  YS02001649YS02001757    1.00   0.00  0.07  0.00  0.74  0.19  0.00  0.00  0.12  0.00
  YS02001652YS02001649    1.00   0.07  0.00  0.00  0.91  0.02  0.00  0.00  0.53  0.00
  YS02001655YS02001652    1.00   0.07  0.00  0.00  0.54  0.00  0.00  0.38  0.02  0.00
  YS02001658YS02001655    1.00   0.07  0.00  0.00  0.79  0.14  0.00  0.00  0.57  0.00
  YS02001661YS02001658    1.00   0.07  0.00  0.00  0.65  0.28  0.00  0.00  0.60  0.00
  YS02001664YS02001661    1.00   0.07  0.00  0.00  0.83  0.10  0.00  0.00  0.86  0.00
  YS02001745YS02001748    1.00   0.07  0.00  0.00  0.46  0.00  0.00  0.47  0.03  0.00
  YS02001748YS02001751    1.00   0.07  0.00  0.00  0.82  0.11  0.00  0.00  0.56  0.00
  YS02001751YS02001754    1.00   0.07  0.00  0.00  0.54  0.00  0.00  0.39  0.02  0.00
  YS02001754YS02001757    1.00   0.00  0.07  0.00  0.92  0.01  0.00  0.00  0.54  0.00
  YS02001757CaochengTiaoxuchi    1.00   0.00  0.00  0.00  1.00  0.00  0.00  0.00  0.53  0.00
  YS02001759YS02001757    1.00   0.00  0.07  0.00  0.92  0.01  0.00  0.00  0.52  0.00
  YS02001762YS02001759    1.00   0.07  0.00  0.00  0.93  0.00  0.00  0.00  0.00  0.00
  YS02001765YS02001762    1.00   0.07  0.00  0.00  0.93  0.00  0.00  0.00  0.52  0.00
  YS02001767YS02001765    1.00   0.07  0.00  0.00  0.93  0.00  0.00  0.00  0.00  0.00
  YS02001770YS02001767    1.00   0.07  0.00  0.00  0.93  0.00  0.00  0.00  0.00  0.00
  YS02001774YS02001770    1.00   0.07  0.00  0.00  0.81  0.00  0.12  0.00  0.00  0.00
  YS02001779YS02001774    1.00   0.07  0.24  0.00  0.69  0.00  0.00  0.00  0.53  0.00
  YS02001783YS02001784    1.00   0.09  0.00  0.00  0.90  0.01  0.00  0.00  0.53  0.00
  YS02001784YS02001785    1.00   0.09  0.00  0.00  0.91  0.00  0.00  0.00  0.35  0.00
  YS02001786YS02001788    1.00   0.09  0.00  0.00  0.64  0.27  0.00  0.00  0.00  0.00
  YS02001788YS02001790    1.00   0.10  0.00  0.00  0.26  0.64  0.00  0.00  0.59  0.00
  YS02001790YS02001791    1.00   0.10  0.00  0.00  0.01  0.89  0.00  0.00  0.11  0.00
  YS02001791YS02001793    1.00   0.11  0.00  0.00  0.00  0.89  0.00  0.00  0.04  0.00
  YS02001793JiankangQianchi    1.00   0.00  0.11  0.00  0.89  0.00  0.00  0.00  0.69  0.00
  YS02001882YS02001884    1.00   0.07  0.00  0.00  0.93  0.00  0.00  0.00  0.00  0.00
  YS02001884YS02001887    1.00   0.07  0.00  0.00  0.93  0.00  0.00  0.00  0.00  0.00
  YS02001887YS02001890    1.00   0.07  0.00  0.00  0.93  0.00  0.00  0.00  0.00  0.00
  YS02001890YS02001895    1.00   0.07  0.00  0.00  0.93  0.00  0.00  0.00  0.00  0.00
  YS02001895YS02001898    1.00   0.07  0.00  0.00  0.90  0.00  0.02  0.00  0.00  0.00
  YS02001898YS02001901    1.00   0.07  0.00  0.00  0.92  0.01  0.00  0.00  0.00  0.00
  YS02001901YS02001904    1.00   0.07  0.00  0.00  0.92  0.00  0.00  0.00  0.00  0.00
  YS02001904YS02001907    1.00   0.07  0.01  0.00  0.92  0.00  0.00  0.00  0.00  0.00
  YS02001907YS02006553    1.00   0.07  0.00  0.00  0.93  0.00  0.00  0.00  0.00  0.00
  YS02001910YS02001907    1.00   0.07  0.00  0.00  0.93  0.00  0.00  0.00  0.00  0.00
  YS02001915YS02001910    1.00   0.07  0.00  0.00  0.92  0.02  0.00  0.00  0.00  0.00
  YS02001918YS02001915    1.00   0.07  0.01  0.00  0.92  0.00  0.00  0.00  0.61  0.00
  YS02001920YS02001918    1.00   0.07  0.01  0.00  0.92  0.00  0.00  0.00  0.00  0.00
  YS02001923YS02001920    1.00   0.07  0.00  0.00  0.92  0.01  0.00  0.00  0.63  0.00
  YS02001926YS02001923    1.00   0.07  0.00  0.00  0.27  0.00  0.66  0.00  0.00  0.00
  YS02001929YS02001926    1.00   0.07  0.00  0.00  0.93  0.00  0.00  0.00  0.72  0.00
  YS02006553YS02006556    1.00   0.07  0.00  0.00  0.93  0.00  0.00  0.00  0.00  0.00
  YS02006556YS02006558    1.00   0.07  0.00  0.00  0.93  0.00  0.00  0.00  0.00  0.00
  YS02006558YS02006561    1.00   0.08  0.00  0.00  0.24  0.68  0.00  0.00  0.11  0.00
  YS02006561YS02001783    1.00   0.08  0.00  0.00  0.48  0.44  0.00  0.00  0.60  0.00
  YS02163301YS02001633    1.00   0.07  0.00  0.00  0.93  0.00  0.00  0.00  0.00  0.00
  YS02163601YS02164001    1.00   0.07  0.00  0.00  0.93  0.00  0.00  0.00  0.00  0.00
  YS02164001YS02001641    1.00   0.07  0.00  0.00  0.93  0.00  0.00  0.00  0.00  0.00
  
  
  *************************
  Conduit Surcharge Summary
  *************************
  
  ----------------------------------------------------------------------------
                                                           Hours        Hours 
                         --------- Hours Full --------   Above Full   Capacity
  Conduit                Both Ends  Upstream  Dnstream   Normal Flow   Limited
  ----------------------------------------------------------------------------
  WS02003072WS02003073        0.01      0.01      0.01      2.27         0.01
  WS02004401WS02004402        0.01      0.01      0.01      0.01         0.01
  WS02004402WS02004403        0.01      0.01      0.01      0.02         0.01
  WS02004404WS02004405        0.01      0.01      0.01      3.20         0.01
  WS02004405WS02004406        0.01      0.01      0.01      2.21         0.01
  WS02006109WS02006110        2.28      2.28      2.86      2.30         0.01
  WS02006110WS02006113        0.01      0.01      2.85      0.01         0.01
  WS02006111WS02006112        0.01      0.01      2.92      0.01         0.01
  WS02006112WS02006115        0.01      0.01      2.22      0.01         0.01
  WS02006113WS02006111        0.01      0.01      0.01      0.01         0.01
  WS02006115WS02006116        0.01      0.01      0.01      0.01         0.01
  WS02006116WS02004401        0.01      0.01      0.01      0.02         0.01
  WS02006228WS02006109        2.83      2.85      2.84      2.97         2.83
  WS02006229WS02006228        2.83      2.84      2.83      2.91         2.82
  WS02006230WS02006229        2.86      2.89      2.88      3.21         2.86
  WS02006231WS02006230        2.26      2.26      2.30      3.09         0.01
  WS02006232WS02006231        2.30      2.30      2.85      2.31         0.01
  WS02006234WS02006232        2.82      2.82      2.85      2.30         2.28
  WS02006235WS02006234        2.36      2.36      2.83      3.04         0.01
  WS02006238WS02006235        2.83      2.83      2.85      0.01         0.01
  WS02006239WS02006238        2.84      2.84      2.84      2.83         2.49
  WS02006240WS02006239        2.82      2.83      2.82      2.82         2.19
  WS02006242WS02006240        2.82      2.82      2.85      2.85         0.01
  WS02006243WS02006242        2.82      2.82      2.84      0.01         0.01
  WS02006245WS02006243        2.81      2.81      2.82      0.52         1.10
  WS02006247WS02006245        2.81      2.82      2.81      3.00         2.81
  WS02006248WS02006247        2.81      2.81      2.81      0.01         0.01
  WS02006249WS02006248        2.80      2.81      2.80      3.00         0.01
  WS02006251WS02006249        2.80      2.80      2.80      2.84         2.80
  WS02006252WS02006251        2.86      2.86      2.86      2.86         0.01
  WS02006256WS02006235        3.06      3.07      3.44      2.40         0.01
  YS02001580YS02001583        1.83      1.83      1.86      0.01         0.01
  YS02001583YS02001586        1.83      1.83      1.95      0.01         0.01
  YS02001586YS02001590        1.95      1.95      2.00      0.01         0.01
  YS02001590YS02001593        2.00      2.00      2.01      2.00         0.01
  YS02001593YS02001596        2.01      2.01      2.07      0.01         0.01
  YS02001596YS02001600        2.09      2.09      2.15      0.01         0.01
  YS02001600YS02001601        2.18      2.18      2.34      0.01         0.01
  YS02001601YS02001602        2.29      2.29      2.36      2.12         0.01
  YS02001602YS02001605        2.27      2.27      2.29      2.81         0.01
  YS02001605YS02001607        2.25      2.27      2.27      2.22         2.17
  YS02001607YS02001610        2.00      2.00      2.02      0.01         0.01
  YS02001610YS02001613        2.00      2.00      2.02      0.01         0.01
  YS02001613YS02001616        1.97      1.97      2.00      0.01         0.01
  YS02001616YS02001619        1.97      1.97      1.97      0.01         0.01
  YS02001619YS02001622        1.97      1.97      1.97      1.93         1.71
  YS02001622YS02001625        1.97      1.97      2.10      0.01         0.01
  YS02001625YS02001629        1.94      1.94      2.10      0.01         0.01
  YS02001629YS02163301        2.12      2.12      2.13      0.05         0.05
  YS02001633YS02163601        2.15      2.15      2.19      0.10         0.10
  YS02001641YS02001644        2.14      2.15      2.14      2.40         2.11
  YS02001644YS02001647        1.98      1.98      2.14      0.01         0.01
  YS02001647YS02001649        1.98      1.98      2.11      0.01         0.01
  YS02001649YS02001757        2.10      2.11      2.18      0.14         0.09
  YS02001652YS02001649        1.96      1.96      2.11      0.01         0.01
  YS02001655YS02001652        1.81      1.81      1.94      0.01         0.01
  YS02001658YS02001655        1.01      1.01      1.81      0.01         0.01
  YS02001661YS02001658        0.01      0.01      1.01      0.01         0.01
  YS02001745YS02001748        0.01      0.01      0.01      0.01         0.01
  YS02001748YS02001751        0.51      0.51      1.74      0.01         0.01
  YS02001751YS02001754        1.74      1.74      1.89      0.01         0.01
  YS02001754YS02001757        1.92      1.92      2.18      0.01         0.01
  YS02001757CaochengTiaoxuchi        2.18      2.18      2.61      0.59         0.56
  YS02001759YS02001757        2.11      2.11      2.18      0.01         0.01
  YS02001762YS02001759        2.07      2.07      2.11      0.01         0.03
  YS02001765YS02001762        2.04      2.04      2.07      0.01         0.01
  YS02001767YS02001765        2.01      2.01      2.04      0.01         0.03
  YS02001770YS02001767        2.01      2.01      2.01      1.86         1.36
  YS02001774YS02001770        1.99      1.99      2.06      0.01         0.01
  YS02001779YS02001774        1.87      1.87      2.06      0.01         0.01
  YS02001783YS02001784        1.51      1.79      1.51      1.90         1.51
  YS02001784YS02001785        1.14      1.51      1.14      1.99         1.14
  YS02001786YS02001788        0.01      1.14      0.01      1.95         0.01
  YS02001790YS02001791        0.01      0.01      0.01      1.48         0.01
  YS02001793JiankangQianchi        0.01      0.01      6.85      0.01         0.01
  YS02001882YS02001884        1.29      1.29      1.34      0.01         0.01
  YS02001884YS02001887        1.49      1.49      1.76      0.01         0.01
  YS02001887YS02001890        1.80      1.80      1.81      0.01         0.01
  YS02001890YS02001895        1.26      1.26      1.83      0.01         0.01
  YS02001895YS02001898        1.24      1.24      1.26      0.01         0.01
  YS02001898YS02001901        1.27      1.27      1.49      0.01         0.01
  YS02001901YS02001904        1.41      1.41      1.49      0.01         0.01
  YS02001904YS02001907        1.41      1.41      1.95      0.01         0.01
  YS02001907YS02006553        1.99      1.99      2.02      0.01         0.01
  YS02001910YS02001907        1.82      1.82      1.94      0.01         0.01
  YS02001915YS02001910        1.29      1.29      1.82      0.01         0.01
  YS02001918YS02001915        1.11      1.11      1.29      0.01         0.01
  YS02001920YS02001918        1.11      1.11      1.13      0.01         0.01
  YS02001923YS02001920        1.04      1.04      1.13      0.01         0.01
  YS02001926YS02001923        0.01      0.01      0.01      0.01         0.01
  YS02001929YS02001926        0.01      0.01      0.01      0.01         0.01
  YS02006553YS02006556        1.88      1.88      1.95      0.01         0.01
  YS02006556YS02006558        1.92      1.92      1.95      0.01         0.01
  YS02006558YS02006561        1.17      1.88      1.17      1.97         1.17
  YS02006561YS02001783        1.07      1.07      1.79      0.01         0.01
  YS02163301YS02001633        2.13      2.13      2.16      0.01         0.01
  YS02163601YS02164001        2.14      2.14      2.19      0.07         0.01
  YS02164001YS02001641        2.14      2.14      2.15      0.35         0.74
  
  
  ***************
  Pumping Summary
  ***************
  
  ---------------------------------------------------------------------------------------------------------
                                                  Min       Avg       Max     Total     Power    % Time Off
                        Percent   Number of      Flow      Flow      Flow    Volume     Usage    Pump Curve
  Pump                 Utilized   Start-Ups       LPS       LPS       LPS  10^6 ltr     Kw-hr    Low   High
  ---------------------------------------------------------------------------------------------------------
  CC-R1                   34.82           1      0.00    683.00    683.00     6.849    134.60    0.0   44.4
  CC-R2                   33.70           1      0.00    683.00    683.00     6.629    130.51    0.0   45.9
  CC-S1                   37.74           3      0.00    200.00    200.00     2.174     10.19    0.0   32.9
  CC-S2                   35.70           1      0.00    200.00    200.00     2.056      9.47    0.0   34.8
  JK-R1                   17.99         225      0.00   1000.00   1000.00     5.181     70.23    0.0    0.0
  JK-R2                    0.00           0      0.00      0.00      0.00     0.000      0.00    0.0    0.0
  JK-S                    29.99           1      0.00    300.00    300.00     2.591     31.67    0.0    0.0
  

  Analysis begun on:  Thu Sep  7 10:24:31 2023
  Analysis ended on:  Thu Sep  7 10:25:09 2023
  Total elapsed time: 00:00:38