
  OWA STORM WATER MANAGEMENT MODEL - VERSION v5.1.14 (OWA 2022-07-31)
  --------------------------------------------------------------

  WARNING 04: minimum elevation drop used for Conduit WS02004404WS02004405
  WARNING 03: negative offset ignored for Link YS02001904YS02001907
  
  *********************************************************
  NOTE: The summary statistics displayed in this report are
  based on results found at every computational time step,  
  not just on results from each reporting time step.
  *********************************************************
  
  ****************
  Analysis Options
  ****************
  Flow Units ............... LPS
  Process Models:
    Rainfall/Runoff ........ YES
    RDII ................... NO
    Snowmelt ............... NO
    Groundwater ............ NO
    Flow Routing ........... YES
    Ponding Allowed ........ NO
    Water Quality .......... NO
  Infiltration Method ...... HORTON
  Flow Routing Method ...... DYNWAVE
  Surcharge Method ......... EXTRAN
  Starting Date ............ 08/28/2015 08:00:00
  Ending Date .............. 08/28/2015 16:00:00
  Antecedent Dry Days ...... 8.0
  Report Time Step ......... 00:01:00
  Wet Time Step ............ 00:01:00
  Dry Time Step ............ 00:01:00
  Routing Time Step ........ 30.00 sec
  Variable Time Step ....... YES
  Maximum Trials ........... 8
  Number of Threads ........ 2
  Head Tolerance ........... 0.001500 m
  
  
  **************************        Volume         Depth
  Runoff Quantity Continuity     hectare-m            mm
  **************************     ---------       -------
  Initial LID Storage ......         0.072         1.184
  Total Precipitation ......         3.979        65.684
  Evaporation Loss .........         0.000         0.000
  Infiltration Loss ........         0.207         3.423
  Surface Runoff ...........         3.054        50.420
  Final Storage ............         0.790        13.040
  Continuity Error (%) .....        -0.022
  
  
  **************************        Volume        Volume
  Flow Routing Continuity        hectare-m      10^6 ltr
  **************************     ---------     ---------
  Dry Weather Inflow .......         0.630         6.296
  Wet Weather Inflow .......         3.054        30.542
  Groundwater Inflow .......         0.000         0.000
  RDII Inflow ..............         0.000         0.000
  External Inflow ..........         0.105         1.045
  External Outflow .........         2.489        24.886
  Flooding Loss ............         1.290        12.901
  Evaporation Loss .........         0.000         0.000
  Exfiltration Loss ........         0.000         0.000
  Initial Stored Volume ....         0.303         3.031
  Final Stored Volume ......         0.322         3.220
  Continuity Error (%) .....        -0.226
  
  
  *************************
  Highest Continuity Errors
  *************************
  Node YS02001583 (-5.49%)
  Node YS02001884 (5.21%)
  Node WS02006256 (-2.69%)
  Node HS02004842 (1.70%)
  Node YS02001774 (1.46%)
  
  
  ***************************
  Time-Step Critical Elements
  ***************************
  Link WS02006280WS02006229 (45.13%)
  Link WS02006252WS02006251 (27.40%)
  Link YS02001791YS02001793 (6.02%)
  Link WS02006238WS02006235 (5.97%)
  Link WS02003066WSF200 (2.74%)
  
  
  ********************************
  Highest Flow Instability Indexes
  ********************************
  Link WS02006113WS02006111 (26)
  Link WS02006256WS02006235 (21)
  Link WS02006229WS02006228 (20)
  Link WS02006238WS02006235 (19)
  Link WS02004404WS02004405 (19)
  
  
  *************************
  Routing Time Step Summary
  *************************
  Minimum Time Step           :     0.00 sec
  Average Time Step           :     2.23 sec
  Maximum Time Step           :     6.46 sec
  Percent in Steady State     :    -0.00
  Average Iterations per Step :     3.44
  Percent Not Converging      :    13.87
  
  
  ***************************
  Subcatchment Runoff Summary
  ***************************
  
  ------------------------------------------------------------------------------------------------------------------------------
                            Total      Total      Total      Total     Imperv       Perv      Total       Total     Peak  Runoff
                           Precip      Runon       Evap      Infil     Runoff     Runoff     Runoff      Runoff   Runoff   Coeff
  Subcatchment                 mm         mm         mm         mm         mm         mm         mm    10^6 ltr      LPS
  ------------------------------------------------------------------------------------------------------------------------------
  sub0                      65.68       0.00       0.00       1.01      59.84       3.59      63.43        0.05    35.22   0.966
  sub1                      65.68       0.00       0.00       1.53      51.28       4.94      56.22        0.37   222.74   0.856
  sub2                      65.68       0.00       0.00       6.99      37.49      15.52      53.00        0.49   245.16   0.807
  sub3                      65.68       0.00       0.00       7.50      37.12      14.81      51.94        1.17   530.75   0.791
  sub4                      65.68       0.00       0.00       1.68      50.51       4.72      55.23        1.15   564.76   0.841
  sub5                      65.68       0.00       0.00       0.87      49.61       2.95      52.56        0.60   358.00   0.800
  sub7                      65.68       0.00       0.00       1.03      45.34       3.55      48.89        0.16   108.25   0.744
  sub8                      65.68       0.00       0.00       1.01      44.06       3.44      47.50        0.30   194.96   0.723
  sub9                      65.68       0.00       0.00       0.98      42.71       3.34      46.05        0.22   142.06   0.701
  sub10                     65.68       0.00       0.00       0.98      48.06       3.29      51.35        0.57   347.38   0.782
  sub11                     65.68       0.00       0.00       0.89      44.66       3.08      47.74        0.55   359.06   0.727
  sub12                     65.68       0.00       0.00       1.56      45.41       5.37      50.77        0.44   302.93   0.773
  sub14                     65.68       0.00       0.00       0.97      42.30       3.30      45.60        0.43   277.51   0.694
  sub15                     65.68       0.00       0.00       4.42      38.03      12.23      50.26        0.86   505.85   0.765
  sub16                     65.68       0.00       0.00       4.69      37.09      13.97      51.06        0.53   339.88   0.777
  sub17                     65.68       0.00       0.00       5.02      40.94      14.65      55.59        0.48   295.73   0.846
  sub22                     65.68       0.00       0.00       7.84      35.50      19.51      55.01        3.47  1901.77   0.837
  sub23                     65.68       0.00       0.00       5.89      36.55      16.04      52.59        2.51  1469.37   0.801
  sub60                     65.68       0.00       0.00       1.39      43.68       4.69      48.37        0.64   415.06   0.736
  sub61                     65.68       0.00       0.00       2.14      43.64       6.99      50.63        0.93   606.81   0.771
  sub62                     65.68       0.00       0.00       0.95      46.53       3.19      49.71        1.36   830.43   0.757
  sub63                     65.68       0.00       0.00       3.93      37.38      11.67      49.05        1.11   695.37   0.747
  sub64                     65.68       0.00       0.00       1.88      42.56       5.79      48.36        1.16   685.59   0.736
  sub65                     65.68       0.00       0.00       1.73      45.94       5.29      51.23        1.41   805.72   0.780
  sub66                     65.68       0.00       0.00       4.60      36.15      10.50      46.65        2.18  1068.35   0.710
  sub67                     65.68       0.00       0.00       0.94      47.70       3.30      51.00        0.95   640.17   0.776
  sub68                     65.68       0.00       0.00       1.64      42.13       5.36      47.49        1.31   828.39   0.723
  sub69                     65.68       0.00       0.00       1.51      44.16       6.30      50.46        1.87  1041.09   0.768
  sub70                     65.68       0.00       0.00       5.09      35.38      13.19      48.57        1.40   620.45   0.739
  sub71                     65.68       0.00       0.00       0.87      42.27       2.88      45.15        1.18   690.90   0.687
  sub72                     65.68       0.00       0.00       0.83      45.66       2.68      48.34        0.66   360.99   0.736
  

  ***********************
  LID Performance Summary
  ***********************

  --------------------------------------------------------------------------------------------------------------------
                                         Total      Evap     Infil   Surface    Drain    Initial     Final  Continuity
                                        Inflow      Loss      Loss   Outflow   Outflow   Storage   Storage       Error
  Subcatchment      LID Control             mm        mm        mm        mm        mm        mm        mm           %
  --------------------------------------------------------------------------------------------------------------------
  sub1              GreenRoof            65.68      0.00      0.00      0.00      0.00      7.05     72.76       -0.04
  sub2              GreenRoof            65.68      0.00      0.00      0.00      0.00      7.05     72.76       -0.04
  sub3              GreenRoof            65.68      0.00      0.00      0.00      0.00      7.05     72.76       -0.04
  sub4              GreenRoof            65.68      0.00      0.00      0.00      0.00      7.05     72.76       -0.04
  sub5              GreenRoof            65.68      0.00      0.00      0.00      0.00      7.05     72.76       -0.04
  sub7              GreenRoof            65.68      0.00      0.00      0.00      0.00      7.05     72.76       -0.04
  sub8              GreenRoof            65.68      0.00      0.00      0.00      0.00      7.05     72.76       -0.04
  sub9              GreenRoof            65.68      0.00      0.00      0.00      0.00      7.05     72.76       -0.04
  sub10             GreenRoof            65.68      0.00      0.00      0.00      0.00      7.05     72.76       -0.04
  sub11             GreenRoof            65.68      0.00      0.00      0.00      0.00      7.05     72.76       -0.04
  sub12             GreenRoof            65.68      0.00      0.00      0.00      0.00      7.05     72.76       -0.04
  sub14             GreenRoof            65.68      0.00      0.00      0.00      0.00      7.05     72.76       -0.04
  sub15             GreenRoof            65.68      0.00      0.00      0.00      0.00      7.05     72.76       -0.04
  sub16             GreenRoof            65.68      0.00      0.00      0.00      0.00      7.05     72.76       -0.04
  sub17             GreenRoof            65.68      0.00      0.00      0.00      0.00      7.05     72.76       -0.04
  sub22             GreenRoof            65.68      0.00      0.00      0.00      0.00      7.05     72.76       -0.04
  sub23             GreenRoof            65.68      0.00      0.00      0.00      0.00      7.05     72.76       -0.04
  sub60             GreenRoof            65.68      0.00      0.00      0.00      0.00      7.05     72.76       -0.04
  sub61             GreenRoof            65.68      0.00      0.00      0.00      0.00      7.05     72.76       -0.04
  sub62             GreenRoof            65.68      0.00      0.00      0.00      0.00      7.05     72.76       -0.04
  sub63             GreenRoof            65.68      0.00      0.00      0.00      0.00      7.05     72.76       -0.04
  sub64             GreenRoof            65.68      0.00      0.00      0.00      0.00      7.05     72.76       -0.04
  sub65             GreenRoof            65.68      0.00      0.00      0.00      0.00      7.05     72.76       -0.04
  sub66             GreenRoof            65.68      0.00      0.00      0.00      0.00      7.05     72.76       -0.04
  sub67             GreenRoof            65.68      0.00      0.00      0.00      0.00      7.05     72.76       -0.04
  sub68             GreenRoof            65.68      0.00      0.00      0.00      0.00      7.05     72.76       -0.04
  sub69             GreenRoof            65.68      0.00      0.00      0.00      0.00      7.05     72.76       -0.04
  sub70             GreenRoof            65.68      0.00      0.00      0.00      0.00      7.05     72.76       -0.04
  sub71             GreenRoof            65.68      0.00      0.00      0.00      0.00      7.05     72.76       -0.04
  sub72             GreenRoof            65.68      0.00      0.00      0.00      0.00      7.05     72.76       -0.04
  
  ******************
  Node Depth Summary
  ******************
  
  ---------------------------------------------------------------------------------
                                 Average  Maximum  Maximum  Time of Max    Reported
                                   Depth    Depth      HGL   Occurrence   Max Depth
  Node                 Type       Meters   Meters   Meters  days hr:min      Meters
  ---------------------------------------------------------------------------------
  HS02004478           JUNCTION     0.22     1.59    10.82     0  02:12        1.59
  HS02004479           JUNCTION     0.30     1.70    10.91     0  02:08        1.67
  HS02004480           JUNCTION     0.27     1.68    10.92     0  02:08        1.63
  HS02004770           JUNCTION     0.27     1.42    11.25     0  02:04        1.42
  HS02004777           JUNCTION     0.29     1.48    11.28     0  02:04        1.48
  HS02004785           JUNCTION     0.19     1.49    11.39     0  02:04        1.39
  HS02004788           JUNCTION     0.16     1.42    11.32     0  02:04        1.38
  HS02004792           JUNCTION     0.21     1.60    11.12     0  02:02        1.60
  HS02004799           JUNCTION     0.33     1.76    10.97     0  02:08        1.76
  HS02004802           JUNCTION     0.31     1.80    10.93     0  02:13        1.80
  HS02004807           JUNCTION     0.29     1.92    11.09     0  02:08        1.92
  HS02004817           JUNCTION     0.57     2.43    11.28     0  02:08        2.35
  HS02004824           JUNCTION     0.16     2.01    11.41     0  02:08        1.91
  HS02004830           JUNCTION     0.16     2.01    11.48     0  02:08        1.86
  HS02004837           JUNCTION     0.13     1.97    11.55     0  02:08        1.78
  HS02004842           JUNCTION     0.41     2.22    11.49     0  02:08        2.09
  HS02004848           JUNCTION     0.11     2.05    11.65     0  02:08        1.78
  HS02004852           JUNCTION     0.12     2.08    11.59     0  02:08        1.81
  HS02004856           JUNCTION     0.18     2.07    11.50     0  02:08        1.85
  HS02004862           JUNCTION     0.14     2.00    11.38     0  02:08        1.83
  HS02004870           JUNCTION     0.13     1.96    11.25     0  02:08        1.80
  HS02004876           JUNCTION     0.18     2.02    11.05     0  02:08        1.89
  HS02004881           JUNCTION     0.12     1.74    10.77     0  02:08        1.64
  HS02004901           JUNCTION     0.27     1.42    11.24     0  02:04        1.42
  WS02001211           JUNCTION     0.61     0.81     5.65     0  02:17        0.81
  WS02001212           JUNCTION     0.36     0.57     5.64     0  02:17        0.57
  WS02001213           JUNCTION     0.56     0.87     5.63     0  02:16        0.87
  WS02003059           JUNCTION     0.63     0.94     5.63     0  02:16        0.94
  WS02003060           JUNCTION     0.36     0.69     5.62     0  02:14        0.69
  WS02003066           JUNCTION     0.22     0.46     6.01     0  02:13        0.46
  WS02003067           JUNCTION     0.51     0.89     6.21     0  02:13        0.89
  WS02003069           JUNCTION     0.40     0.78     5.36     0  02:15        0.78
  WS02003072           JUNCTION     0.46     0.81     5.18     0  02:15        0.81
  WS02003073           JUNCTION     0.28     0.52     4.58     0  02:16        0.52
  WS02004138           JUNCTION     0.13     0.14     7.39     0  00:31        0.14
  WS02004139           JUNCTION     0.55     0.74     5.65     0  02:16        0.74
  WS02004401           JUNCTION     0.74     2.08     8.08     0  02:01        1.86
  WS02004402           JUNCTION     0.75     2.00     7.96     0  02:01        1.80
  WS02004403           JUNCTION     0.75     1.89     7.82     0  02:01        1.73
  WS02004404           JUNCTION     0.81     1.86     7.71     0  02:01        1.73
  WS02004405           JUNCTION     0.80     1.78     7.63     0  02:01        1.68
  WS02004406           JUNCTION     0.79     1.58     7.41     0  02:13        1.56
  WS02004407           JUNCTION     0.25     0.93     7.25     0  02:13        0.93
  WS02004409           JUNCTION     0.50     1.39     7.16     0  02:13        1.38
  WS02004410           JUNCTION     0.51     1.30     7.02     0  02:13        1.29
  WS02004411           JUNCTION     0.51     1.21     6.89     0  02:13        1.20
  WS02004412           JUNCTION     0.51     1.11     6.75     0  02:13        1.10
  WS02004413           JUNCTION     0.64     1.15     6.62     0  02:14        1.14
  WS02006109           JUNCTION     0.97     2.64     9.26     0  02:01        2.64
  WS02006110           JUNCTION     0.91     2.46     9.04     0  02:01        2.39
  WS02006111           JUNCTION     0.42     1.90     8.61     0  02:01        1.76
  WS02006112           JUNCTION     0.95     2.55     8.43     0  02:01        2.40
  WS02006113           JUNCTION     0.49     1.95     8.84     0  02:01        1.84
  WS02006115           JUNCTION     0.67     2.19     8.33     0  02:01        1.97
  WS02006116           JUNCTION     0.73     2.18     8.22     0  02:01        1.96
  WS02006228           JUNCTION     1.02     3.03     9.68     0  02:08        3.03
  WS02006229           JUNCTION     1.03     3.24     9.93     0  02:08        3.22
  WS02006230           JUNCTION     0.96     2.65     9.39     0  02:00        2.65
  WS02006231           JUNCTION     0.70     2.20     9.33     0  02:25        2.20
  WS02006232           JUNCTION     0.79     2.18     9.22     0  02:00        2.18
  WS02006234           JUNCTION     0.67     1.96     9.12     0  01:57        1.96
  WS02006235           JUNCTION     0.68     1.95     9.11     0  02:30        1.93
  WS02006238           JUNCTION     0.70     1.96     9.10     0  02:30        1.93
  WS02006239           JUNCTION     0.64     1.81     9.02     0  02:30        1.81
  WS02006240           JUNCTION     0.59     1.68     8.98     0  02:01        1.68
  WS02006242           JUNCTION     0.62     1.55     8.82     0  01:45        1.55
  WS02006243           JUNCTION     0.51     1.48     8.90     0  01:46        1.38
  WS02006245           JUNCTION     0.50     1.56     9.04     0  01:46        1.27
  WS02006247           JUNCTION     0.50     1.47     8.97     0  01:46        1.24
  WS02006248           JUNCTION     0.45     1.10     8.69     0  01:46        1.10
  WS02006249           JUNCTION     0.47     1.09     8.69     0  01:46        1.09
  WS02006251           JUNCTION     0.56     2.21     9.88     0  01:47        2.21
  WS02006252           JUNCTION     0.38     1.50     9.74     0  00:00        1.50
  WS02006253           JUNCTION     0.63     2.97    10.61     0  02:08        2.92
  WS02006256           JUNCTION     1.00     2.35     9.28     0  00:00        2.35
  WS02006280           JUNCTION     0.29     1.76    10.03     0  02:08        1.74
  WS02006284           JUNCTION     0.54     1.96    10.35     0  02:08        1.94
  WS02006287           JUNCTION     0.29     1.74    10.70     0  02:08        1.74
  WSF200               JUNCTION     0.21     0.52     5.75     0  02:14        0.52
  YS02001580           JUNCTION     0.07     1.05     9.59     0  02:04        0.77
  YS02001583           JUNCTION     0.10     1.14     9.64     0  02:04        0.83
  YS02001586           JUNCTION     0.17     1.13     9.30     0  02:04        1.13
  YS02001590           JUNCTION     0.26     1.40     9.26     0  02:04        1.37
  YS02001593           JUNCTION     0.20     1.34     9.20     0  02:04        1.29
  YS02001596           JUNCTION     0.27     1.68     9.10     0  02:04        1.65
  YS02001600           JUNCTION     0.34     1.87     9.00     0  02:04        1.86
  YS02001601           JUNCTION     0.52     2.06     8.90     0  02:03        2.06
  YS02001602           JUNCTION     0.44     1.87     8.77     0  02:05        1.87
  YS02001605           JUNCTION     0.40     1.77     8.68     0  02:25        1.77
  YS02001607           JUNCTION     0.39     1.67     8.52     0  02:25        1.67
  YS02001610           JUNCTION     0.43     1.68     8.48     0  02:08        1.68
  YS02001613           JUNCTION     0.40     1.66     8.50     0  02:12        1.66
  YS02001616           JUNCTION     0.33     1.61     8.52     0  02:12        1.61
  YS02001619           JUNCTION     0.31     1.61     8.54     0  02:12        1.61
  YS02001622           JUNCTION     0.30     1.59     8.49     0  02:12        1.59
  YS02001625           JUNCTION     0.54     1.78     8.38     0  02:08        1.78
  YS02001629           JUNCTION     0.41     1.85     8.40     0  02:10        1.85
  YS02001633           JUNCTION     0.49     2.04     8.50     0  02:12        2.04
  YS02001641           JUNCTION     0.46     1.95     8.39     0  02:12        1.95
  YS02001644           JUNCTION     0.46     1.92     8.35     0  02:11        1.92
  YS02001647           JUNCTION     0.25     1.73     8.34     0  02:12        1.73
  YS02001649           JUNCTION     0.29     1.91     8.30     0  02:12        1.91
  YS02001652           JUNCTION     0.18     1.76     8.35     0  02:12        1.73
  YS02001655           JUNCTION     0.14     1.61     8.46     0  02:11        1.49
  YS02001658           JUNCTION     0.10     1.50     8.64     0  02:11        1.23
  YS02001661           JUNCTION     0.13     1.12     8.52     0  02:12        1.01
  YS02001664           JUNCTION     0.05     0.50     8.43     0  02:12        0.46
  YS02001745           JUNCTION     0.05     0.71     8.22     0  02:11        0.70
  YS02001748           JUNCTION     0.09     1.48     8.55     0  02:12        1.08
  YS02001751           JUNCTION     0.11     1.50     8.38     0  02:12        1.27
  YS02001754           JUNCTION     0.15     1.67     8.28     0  02:12        1.54
  YS02001757           JUNCTION     0.29     1.92     8.18     0  02:12        1.90
  YS02001759           JUNCTION     0.24     1.94     8.31     0  02:12        1.94
  YS02001762           JUNCTION     0.23     1.94     8.34     0  02:12        1.94
  YS02001765           JUNCTION     0.22     1.92     8.37     0  02:12        1.92
  YS02001767           JUNCTION     0.22     1.92     8.40     0  02:12        1.92
  YS02001770           JUNCTION     0.23     1.95     8.44     0  02:12        1.95
  YS02001774           JUNCTION     0.29     2.04     8.46     0  02:09        2.00
  YS02001779           JUNCTION     0.14     1.68     8.37     0  02:09        1.68
  YS02001783           JUNCTION     0.22     1.23     7.37     0  02:12        1.22
  YS02001784           JUNCTION     0.24     1.12     7.19     0  02:11        1.11
  YS02001786           JUNCTION     0.20     0.88     6.91     0  02:12        0.87
  YS02001788           JUNCTION     0.14     0.62     6.60     0  02:11        0.62
  YS02001790           JUNCTION     0.17     0.72     6.37     0  02:11        0.71
  YS02001791           JUNCTION     0.11     0.44     5.91     0  02:11        0.44
  YS02001793           JUNCTION     0.06     0.23     5.06     0  02:24        0.21
  YS02001882           JUNCTION     0.27     1.66     8.38     0  02:09        1.64
  YS02001884           JUNCTION     0.35     1.75     8.37     0  02:09        1.74
  YS02001887           JUNCTION     0.43     1.83     8.37     0  02:12        1.83
  YS02001890           JUNCTION     0.45     1.81     8.32     0  02:09        1.81
  YS02001895           JUNCTION     0.24     1.57     8.32     0  02:12        1.57
  YS02001898           JUNCTION     0.25     1.57     8.31     0  02:09        1.56
  YS02001901           JUNCTION     0.35     1.68     8.29     0  02:09        1.67
  YS02001904           JUNCTION     0.33     1.64     8.27     0  02:09        1.63
  YS02001907           JUNCTION     0.63     1.96     8.25     0  02:09        1.96
  YS02001910           JUNCTION     0.44     1.97     8.47     0  02:10        1.93
  YS02001915           JUNCTION     0.27     1.92     8.63     0  02:10        1.84
  YS02001918           JUNCTION     0.14     1.81     8.88     0  02:10        1.66
  YS02001920           JUNCTION     0.22     2.06     9.07     0  02:10        1.83
  YS02001923           JUNCTION     0.10     1.98     9.24     0  02:10        1.72
  YS02001926           JUNCTION     0.14     1.90     9.35     0  02:10        1.80
  YS02001929           JUNCTION     0.07     1.78     9.47     0  02:10        1.78
  YS02006553           JUNCTION     0.63     1.98     8.27     0  02:12        1.98
  YS02006556           JUNCTION     0.61     1.97     8.29     0  02:12        1.97
  YS02006558           JUNCTION     0.65     2.04     8.30     0  02:12        2.04
  YS02006561           JUNCTION     0.13     0.91     7.57     0  02:09        0.89
  YS02163301           JUNCTION     0.44     1.94     8.45     0  02:12        1.94
  YS02163601           JUNCTION     0.52     2.05     8.45     0  02:12        2.05
  YS02164001           JUNCTION     0.45     1.97     8.42     0  02:12        1.97
  YSB1154              JUNCTION     0.42     1.99    11.05     0  02:12        1.99
  YSB1171              JUNCTION     0.55     1.95    10.85     0  02:08        1.95
  YSB1174              JUNCTION     0.38     1.84    10.95     0  02:12        1.84
  YSB6556              JUNCTION     0.33     1.79    10.95     0  02:12        1.79
  CC-1                 OUTFALL      0.00     0.00     0.00     0  00:00        0.00
  CC-2                 OUTFALL      0.00     0.00     0.00     0  00:00        0.00
  JK-1                 OUTFALL      0.00     0.00     0.00     0  00:00        0.00
  JK-2                 OUTFALL      0.00     0.00     0.00     0  00:00        0.00
  WSC                  OUTFALL      0.27     0.52     1.19     0  02:16        0.52
  CC-storage           STORAGE      0.68     1.43     6.93     0  02:36        1.43
  JK-storage           STORAGE      1.35     4.21     5.01     0  02:05        4.04
  XR-storage           STORAGE      7.72     9.26     7.26     0  08:00        9.26
  
  
  *******************
  Node Inflow Summary
  *******************
  
  -------------------------------------------------------------------------------------------------
                                  Maximum  Maximum                  Lateral       Total        Flow
                                  Lateral    Total  Time of Max      Inflow      Inflow     Balance
                                   Inflow   Inflow   Occurrence      Volume      Volume       Error
  Node                 Type           LPS      LPS  days hr:min    10^6 ltr    10^6 ltr     Percent
  -------------------------------------------------------------------------------------------------
  HS02004478           JUNCTION      0.00  2301.13     0  02:13           0         8.4      -0.008
  HS02004479           JUNCTION      0.00   394.07     0  02:08           0       0.779       0.148
  HS02004480           JUNCTION      0.00  2072.31     0  02:06           0        6.41       0.032
  HS02004770           JUNCTION   1469.37  1469.37     0  02:14        2.51        2.74       0.114
  HS02004777           JUNCTION      0.03   712.84     0  02:04    0.000864        1.89       0.279
  HS02004785           JUNCTION      0.15   729.05     0  02:04     0.00432        1.89       0.025
  HS02004788           JUNCTION    507.52   893.89     0  02:04       0.912         2.8      -0.002
  HS02004792           JUNCTION   1902.05  2685.53     0  02:14        3.48        6.28       0.002
  HS02004799           JUNCTION    277.51  1750.62     0  02:05       0.434        5.72       0.049
  HS02004802           JUNCTION      0.00  1191.23     0  02:13           0        2.07       0.187
  HS02004807           JUNCTION    359.06  1190.71     0  02:13       0.555        2.11       0.191
  HS02004817           JUNCTION      0.60   842.59     0  02:14      0.0173        1.62       1.022
  HS02004824           JUNCTION    564.81   841.68     0  02:14        1.15        1.81       0.038
  HS02004830           JUNCTION      0.15   607.76     0  02:05     0.00432       0.868       0.182
  HS02004837           JUNCTION    353.73   766.29     0  02:08       0.749        1.18       0.080
  HS02004842           JUNCTION      0.00   766.38     0  02:08           0       0.757       1.728
  HS02004848           JUNCTION    530.75  1057.34     0  02:08        1.17        1.75       0.013
  HS02004852           JUNCTION      0.00  1024.20     0  02:08           0        1.59       0.014
  HS02004856           JUNCTION    142.06  1066.12     0  02:07       0.221        1.81       0.076
  HS02004862           JUNCTION    245.36  1195.74     0  02:08         0.5        2.31       0.011
  HS02004870           JUNCTION    194.96  1239.69     0  02:07       0.304        2.61       0.006
  HS02004876           JUNCTION    222.74  1403.33     0  02:13       0.374        2.98       0.016
  HS02004881           JUNCTION    108.25  1511.18     0  02:13       0.165        3.15      -0.003
  HS02004901           JUNCTION    339.88   599.43     0  02:13       0.535       0.837       0.212
  WS02001211           JUNCTION      7.35   205.95     0  03:12       0.212        5.44       0.611
  WS02001212           JUNCTION      0.00   209.69     0  03:13           0        5.41       0.290
  WS02001213           JUNCTION      0.00   214.16     0  03:13           0        5.39       0.333
  WS02003059           JUNCTION      0.00   219.15     0  03:13           0        5.38       0.597
  WS02003060           JUNCTION     16.53  1506.02     0  02:14       0.476        13.9       0.108
  WS02003066           JUNCTION      0.00  1305.99     0  02:14           0        8.05       0.021
  WS02003067           JUNCTION      0.00  1305.76     0  02:14           0        8.06       0.056
  WS02003069           JUNCTION      0.32  1506.25     0  02:15     0.00922        13.9       0.113
  WS02003072           JUNCTION      0.00  1506.13     0  02:15           0        13.8       0.153
  WS02003073           JUNCTION      1.82  1508.22     0  02:16      0.0524        13.9       0.159
  WS02004138           JUNCTION      0.00   380.00     0  00:00           0        5.25       0.052
  WS02004139           JUNCTION      0.32   190.32     0  00:31     0.00924        5.26       0.509
  WS02004401           JUNCTION      0.00  1307.26     0  02:13           0        8.17       0.134
  WS02004402           JUNCTION      0.00  1307.36     0  02:13           0        8.16       0.135
  WS02004403           JUNCTION      0.00  1307.24     0  02:13           0        8.15       0.130
  WS02004404           JUNCTION      0.16  1307.75     0  02:13     0.00467        8.14       0.116
  WS02004405           JUNCTION      0.04  1308.58     0  02:13      0.0011        8.13       0.149
  WS02004406           JUNCTION      0.00  1307.84     0  02:13           0        8.12       0.267
  WS02004407           JUNCTION      0.00  1307.93     0  02:13           0         8.1       0.021
  WS02004409           JUNCTION      0.00  1305.65     0  02:14           0         8.1       0.041
  WS02004410           JUNCTION      0.00  1305.87     0  02:14           0        8.09       0.065
  WS02004411           JUNCTION      0.00  1305.74     0  02:13           0        8.09       0.080
  WS02004412           JUNCTION      0.00  1305.82     0  02:14           0        8.08       0.104
  WS02004413           JUNCTION      0.00  1305.54     0  02:14           0        8.07       0.180
  WS02006109           JUNCTION      1.23  1288.21     0  02:13      0.0354        7.96       0.130
  WS02006110           JUNCTION      0.00  1120.17     0  02:28           0        7.73       0.105
  WS02006111           JUNCTION      0.00  1120.35     0  02:28           0        7.72       0.014
  WS02006112           JUNCTION    295.73  1305.81     0  02:13       0.477         8.2       0.235
  WS02006113           JUNCTION      0.00  1120.56     0  02:28           0        7.73       0.030
  WS02006115           JUNCTION      0.00  1305.66     0  02:13           0        8.18       0.092
  WS02006116           JUNCTION      0.00  1306.31     0  02:13           0        8.17       0.066
  WS02006228           JUNCTION      0.00  1287.18     0  02:13           0        7.93       0.070
  WS02006229           JUNCTION      0.00  2302.91     0  02:13           0        10.1       0.092
  WS02006230           JUNCTION     10.28  1024.96     0  02:13       0.296        3.99       0.248
  WS02006231           JUNCTION      0.00   453.29     0  02:09           0        2.84      -0.136
  WS02006232           JUNCTION      0.00   453.42     0  02:06           0        2.84       0.232
  WS02006234           JUNCTION      0.00   453.29     0  02:23           0        2.82      -0.385
  WS02006235           JUNCTION      0.00   419.84     0  02:30           0        2.83       0.403
  WS02006238           JUNCTION      0.00   415.82     0  02:28           0         2.6      -0.123
  WS02006239           JUNCTION      0.00   415.27     0  02:28           0        2.53      -0.090
  WS02006240           JUNCTION      0.00   415.04     0  02:29           0         2.5       0.034
  WS02006242           JUNCTION      0.00   415.06     0  02:25           0         2.5      -0.009
  WS02006243           JUNCTION      0.00   400.67     0  03:25           0        2.14      -0.137
  WS02006245           JUNCTION      0.00   400.75     0  03:25           0        2.15       0.684
  WS02006247           JUNCTION      0.00   400.41     0  03:25           0        2.15       0.001
  WS02006248           JUNCTION      0.00   430.24     0  03:21           0         2.4      -0.141
  WS02006249           JUNCTION      0.00  1347.08     0  02:13           0        5.33       0.219
  WS02006251           JUNCTION      0.08  1547.92     0  02:13     0.00222        5.45      -0.027
  WS02006252           JUNCTION      0.00   595.15     0  02:13           0        2.53      -0.618
  WS02006253           JUNCTION     35.22  1547.15     0  02:13      0.0514        3.26       0.055
  WS02006256           JUNCTION      0.00   300.00     0  00:00           0       0.769      -2.618
  WS02006280           JUNCTION      0.00  2302.15     0  02:13           0        8.38       0.007
  WS02006284           JUNCTION      0.10  2301.51     0  02:13     0.00275        8.38       0.003
  WS02006287           JUNCTION      0.00  2301.80     0  02:13           0        8.38       0.009
  WSF200               JUNCTION      0.00  1306.07     0  02:14           0        8.05       0.010
  YS02001580           JUNCTION      0.00    79.26     0  02:04           0      0.0039      -0.873
  YS02001583           JUNCTION      0.00   140.13     0  02:03           0      0.0151      -5.204
  YS02001586           JUNCTION    620.45   620.59     0  02:15         1.4        1.41       0.082
  YS02001590           JUNCTION      0.00   317.90     0  02:09           0        1.19      -0.034
  YS02001593           JUNCTION      0.00   317.97     0  02:27           0        1.19       0.014
  YS02001596           JUNCTION      0.00   317.93     0  02:23           0        1.19      -0.001
  YS02001600           JUNCTION      0.00   317.98     0  02:27           0        1.19       0.011
  YS02001601           JUNCTION   1041.09  1358.61     0  02:14        1.87        3.06       0.027
  YS02001602           JUNCTION      0.00   500.41     0  02:03           0        2.11       0.018
  YS02001605           JUNCTION      0.00   500.58     0  02:03           0        2.03       0.014
  YS02001607           JUNCTION      0.00   500.40     0  02:03           0        2.03       0.095
  YS02001610           JUNCTION      0.00   538.09     0  02:15           0         2.1       0.109
  YS02001613           JUNCTION      0.00   501.62     0  02:03           0        1.78       0.092
  YS02001616           JUNCTION      0.00   496.27     0  02:03           0        1.78       0.022
  YS02001619           JUNCTION   1068.35  1068.35     0  02:15        2.18        3.88      -0.000
  YS02001622           JUNCTION      0.00   941.64     0  02:08           0         3.8      -0.001
  YS02001625           JUNCTION      0.00  1131.75     0  02:15           0        3.87       0.230
  YS02001629           JUNCTION      0.00   940.83     0  02:08           0        3.32       0.024
  YS02001633           JUNCTION    805.92  1398.59     0  02:08        1.42        4.65       0.072
  YS02001641           JUNCTION      0.00  1394.37     0  02:08           0        4.58       0.060
  YS02001644           JUNCTION    685.63  1793.50     0  02:08        1.16        5.73       0.059
  YS02001647           JUNCTION      0.00  1794.52     0  02:08           0        5.65       0.004
  YS02001649           JUNCTION      0.00  2082.72     0  02:08           0        6.77       0.003
  YS02001652           JUNCTION      0.00   764.67     0  02:13           0        1.12      -0.087
  YS02001655           JUNCTION      0.15   763.65     0  02:13     0.00443        1.12       0.027
  YS02001658           JUNCTION      0.00   762.82     0  02:13           0        1.11      -0.061
  YS02001661           JUNCTION      0.00   882.49     0  02:13           0        1.11       0.005
  YS02001664           JUNCTION    695.37   695.37     0  02:13        1.11        1.11      -0.006
  YS02001745           JUNCTION    415.06   415.06     0  02:13       0.636       0.636       0.197
  YS02001748           JUNCTION      0.04   536.00     0  02:12      0.0013       0.636      -0.344
  YS02001751           JUNCTION      0.01   437.14     0  02:13    0.000317       0.642       0.083
  YS02001754           JUNCTION      0.26   436.04     0  02:13     0.00749       0.653      -0.152
  YS02001757           JUNCTION      0.00  3470.76     0  02:13           0        9.72       0.061
  YS02001759           JUNCTION    606.85  1371.37     0  02:13        0.93         2.3      -0.004
  YS02001762           JUNCTION      0.00   776.50     0  02:15           0        1.37       0.003
  YS02001765           JUNCTION      0.00   776.15     0  02:15           0        1.37      -0.003
  YS02001767           JUNCTION      0.54   775.62     0  02:15      0.0154        1.37      -0.006
  YS02001770           JUNCTION    830.58   830.58     0  02:13        1.37        1.41       0.007
  YS02001774           JUNCTION      0.00   256.37     0  02:09           0      0.0702       1.483
  YS02001779           JUNCTION      0.01   257.36     0  02:09    0.000144      0.0281      -2.261
  YS02001783           JUNCTION      0.00  1158.81     0  02:13           0        3.53       0.006
  YS02001784           JUNCTION      1.06  1159.74     0  02:12      0.0305        3.56       0.014
  YS02001786           JUNCTION      0.06  1159.80     0  02:13     0.00162        3.56       0.018
  YS02001788           JUNCTION      0.07  1160.57     0  02:12     0.00204        3.56       0.008
  YS02001790           JUNCTION      0.15  1175.53     0  02:12     0.00446        3.56       0.011
  YS02001791           JUNCTION      0.00  1285.36     0  02:11           0        3.56      -0.011
  YS02001793           JUNCTION      0.00  1247.20     0  02:12           0        3.56       0.006
  YS02001882           JUNCTION      0.00    24.98     0  02:06           0      0.0126       4.962
  YS02001884           JUNCTION      0.00    60.12     0  02:06           0      0.0484       5.498
  YS02001887           JUNCTION    640.62   640.65     0  02:13       0.961       0.995       0.444
  YS02001890           JUNCTION      0.00   640.65     0  02:13           0       0.954       0.535
  YS02001895           JUNCTION      0.00   516.64     0  02:15           0       0.923       0.179
  YS02001898           JUNCTION      0.00   517.32     0  02:15           0       0.921       0.020
  YS02001901           JUNCTION      0.00   517.11     0  02:15           0       0.924       0.350
  YS02001904           JUNCTION      0.00   516.89     0  02:15           0       0.928       0.302
  YS02001907           JUNCTION      0.00  1622.27     0  02:13           0        2.85       0.628
  YS02001910           JUNCTION      0.00  1107.69     0  02:14           0        1.93       0.371
  YS02001915           JUNCTION    690.92  1107.42     0  02:14        1.18        1.96       0.083
  YS02001918           JUNCTION      0.00   455.21     0  02:10           0       0.802       0.024
  YS02001920           JUNCTION      2.87   454.04     0  02:10      0.0827       0.788       0.128
  YS02001923           JUNCTION      0.04   424.88     0  02:10     0.00109       0.691      -0.090
  YS02001926           JUNCTION      0.05   420.63     0  02:10      0.0015       0.673       0.051
  YS02001929           JUNCTION    360.99   360.99     0  02:14       0.665       0.665      -0.108
  YS02006553           JUNCTION      0.00   797.54     0  02:25           0        2.24       0.526
  YS02006556           JUNCTION      0.00   796.99     0  02:25           0        2.25       0.358
  YS02006558           JUNCTION    829.27  1159.72     0  02:12        1.33        3.56       0.105
  YS02006561           JUNCTION      0.00  1159.03     0  02:12           0        3.53      -0.003
  YS02163301           JUNCTION      0.00   941.18     0  02:07           0        3.31       0.044
  YS02163601           JUNCTION      0.11  1398.18     0  02:08     0.00317        4.57       0.106
  YS02164001           JUNCTION      0.00  1397.03     0  02:08           0        4.57       0.051
  YSB1154              JUNCTION    358.00   358.00     0  02:13       0.595       0.596       0.250
  YSB1171              JUNCTION      0.00   837.18     0  02:14           0        1.09       0.586
  YSB1174              JUNCTION    302.93   302.93     0  02:13       0.444       0.444       0.299
  YSB6556              JUNCTION      0.00   358.33     0  02:13           0       0.597       0.229
  CC-1                 OUTFALL       0.00   683.00     0  00:00           0        4.76       0.000
  CC-2                 OUTFALL       0.00   683.00     0  00:00           0        3.34       0.000
  JK-1                 OUTFALL       0.00  1000.00     0  00:00           0        1.42       0.000
  JK-2                 OUTFALL       0.00  1000.00     0  00:00           0         1.5       0.000
  WSC                  OUTFALL       0.00  1508.93     0  02:16           0        13.9       0.000
  CC-storage           STORAGE       0.00  3470.28     0  02:13           0        11.9      -0.260
  JK-storage           STORAGE       0.00  1246.61     0  02:12           0        3.71      -0.460
  XR-storage           STORAGE     200.00   200.00     0  00:00        5.76        6.36       0.001
  
  
  **********************
  Node Surcharge Summary
  **********************
  
  Surcharging occurs when water rises above the top of the highest conduit.
  ---------------------------------------------------------------------
                                               Max. Height   Min. Depth
                                   Hours       Above Crown    Below Rim
  Node                 Type      Surcharged         Meters       Meters
  ---------------------------------------------------------------------
  HS02004478           JUNCTION        0.45          0.669        0.271
  HS02004479           JUNCTION        0.58          0.903        0.147
  HS02004480           JUNCTION        0.62          0.971        0.129
  HS02004770           JUNCTION        0.53          0.720        0.000
  HS02004777           JUNCTION        0.53          0.780        0.000
  HS02004785           JUNCTION        0.48          0.790        0.000
  HS02004788           JUNCTION        0.47          0.720        0.000
  HS02004792           JUNCTION        0.59          0.900        0.000
  HS02004799           JUNCTION        0.73          1.060        0.000
  HS02004802           JUNCTION        0.63          1.094        0.116
  HS02004807           JUNCTION        0.61          1.220        0.000
  HS02004817           JUNCTION        1.23          1.729        0.011
  HS02004824           JUNCTION        0.47          1.306        0.004
  HS02004830           JUNCTION        0.44          1.312        0.018
  HS02004837           JUNCTION        0.40          1.267        0.073
  HS02004842           JUNCTION        0.54          1.520        0.000
  HS02004848           JUNCTION        0.35          1.353        0.017
  HS02004852           JUNCTION        0.38          1.377        0.043
  HS02004856           JUNCTION        0.37          1.300        0.000
  HS02004862           JUNCTION        0.40          1.300        0.000
  HS02004870           JUNCTION        0.42          1.264        0.136
  HS02004876           JUNCTION        0.49          1.321        0.239
  HS02004881           JUNCTION        0.47          1.044        0.406
  HS02004901           JUNCTION        0.53          0.720        0.000
  WS02004401           JUNCTION        1.50          1.082        0.578
  WS02004402           JUNCTION        1.52          1.001        0.739
  WS02004403           JUNCTION        1.53          0.887        1.143
  WS02004404           JUNCTION        1.60          0.859        1.921
  WS02004405           JUNCTION        1.58          0.775        2.025
  WS02004406           JUNCTION        1.57          0.578        1.872
  WS02004409           JUNCTION        0.99          0.393        1.967
  WS02004410           JUNCTION        0.93          0.300        2.240
  WS02004411           JUNCTION        0.84          0.208        2.322
  WS02004412           JUNCTION        0.75          0.106        2.204
  WS02004413           JUNCTION        1.27          0.146        2.054
  WS02006109           JUNCTION        1.99          1.820        0.000
  WS02006110           JUNCTION        1.78          1.550        0.300
  WS02006111           JUNCTION        1.23          1.094        0.776
  WS02006112           JUNCTION        1.85          1.552        0.128
  WS02006113           JUNCTION        1.25          1.151        0.779
  WS02006115           JUNCTION        1.40          1.177        1.073
  WS02006116           JUNCTION        1.42          1.123        1.167
  WS02006228           JUNCTION        1.99          2.200        0.000
  WS02006229           JUNCTION        0.86          1.057        0.013
  WS02006230           JUNCTION        1.60          1.570        0.000
  WS02006231           JUNCTION        1.64          1.492        0.038
  WS02006232           JUNCTION        1.85          1.480        0.000
  WS02006234           JUNCTION        1.70          1.240        0.000
  WS02006235           JUNCTION        1.75          1.237        0.053
  WS02006238           JUNCTION        1.77          1.236        0.194
  WS02006239           JUNCTION        1.71          1.073        0.217
  WS02006240           JUNCTION        1.67          0.974        0.416
  WS02006242           JUNCTION        1.73          0.820        0.000
  WS02006243           JUNCTION        1.63          0.770        0.000
  WS02006245           JUNCTION        1.61          0.850        0.000
  WS02006247           JUNCTION        1.62          0.760        0.000
  WS02006248           JUNCTION        1.58          0.380        0.000
  WS02006249           JUNCTION        1.59          0.390        0.000
  WS02006251           JUNCTION        1.47          1.180        0.000
  WS02006252           JUNCTION        1.71          1.100        0.000
  WS02006253           JUNCTION        1.49          1.930        0.550
  WS02006256           JUNCTION        7.43          2.050        0.000
  WS02006280           JUNCTION        0.74          0.709        0.071
  WS02006284           JUNCTION        0.65          0.675        0.125
  WS02006287           JUNCTION        0.55          0.742        0.148
  YS02001580           JUNCTION        0.51          0.450        0.000
  YS02001583           JUNCTION        0.52          0.500        0.000
  YS02001586           JUNCTION        0.61          0.510        0.000
  YS02001590           JUNCTION        0.69          0.749        0.001
  YS02001593           JUNCTION        0.69          0.718        0.122
  YS02001596           JUNCTION        0.80          0.955        0.115
  YS02001600           JUNCTION        0.96          1.190        0.000
  YS02001601           JUNCTION        1.34          1.440        0.000
  YS02001602           JUNCTION        1.23          1.270        0.000
  YS02001605           JUNCTION        1.17          1.175        0.005
  YS02001607           JUNCTION        0.64          0.673        0.007
  YS02001610           JUNCTION        0.67          0.680        0.000
  YS02001613           JUNCTION        0.63          0.658        0.042
  YS02001616           JUNCTION        0.59          0.610        0.000
  YS02001619           JUNCTION        0.58          0.610        0.000
  YS02001622           JUNCTION        0.58          0.585        0.035
  YS02001625           JUNCTION        0.76          0.780        0.000
  YS02001629           JUNCTION        0.52          0.470        0.000
  YS02001633           JUNCTION        0.77          1.023        0.037
  YS02001641           JUNCTION        0.68          0.952        0.148
  YS02001644           JUNCTION        0.64          0.920        0.000
  YS02001647           JUNCTION        0.42          0.726        0.174
  YS02001649           JUNCTION        0.51          0.913        0.137
  YS02001652           JUNCTION        0.34          0.727        0.403
  YS02001655           JUNCTION        0.22          0.612        0.588
  YS02001658           JUNCTION        0.11          0.496        0.804
  YS02001661           JUNCTION        0.01          0.048        1.342
  YS02001748           JUNCTION        0.02          0.397        0.793
  YS02001751           JUNCTION        0.14          0.501        0.699
  YS02001754           JUNCTION        0.23          0.618        0.532
  YS02001757           JUNCTION        0.54          0.921        0.289
  YS02001759           JUNCTION        0.45          0.943        0.267
  YS02001762           JUNCTION        0.42          0.940        0.210
  YS02001765           JUNCTION        0.39          0.918        0.182
  YS02001767           JUNCTION        0.36          0.916        0.114
  YS02001770           JUNCTION        0.35          0.920        0.000
  YS02001774           JUNCTION        0.41          1.040        0.010
  YS02001779           JUNCTION        0.24          0.680        0.000
  YS02001783           JUNCTION        0.42          0.433        1.167
  YS02001784           JUNCTION        0.40          0.320        1.170
  YS02001786           JUNCTION        0.30          0.081        1.349
  YS02001882           JUNCTION        0.37          0.660        0.170
  YS02001884           JUNCTION        0.38          0.688        0.182
  YS02001887           JUNCTION        0.41          0.778        0.172
  YS02001890           JUNCTION        0.43          0.760        0.000
  YS02001895           JUNCTION        0.36          0.570        0.180
  YS02001898           JUNCTION        0.35          0.540        0.200
  YS02001901           JUNCTION        0.40          0.678        0.192
  YS02001904           JUNCTION        0.39          0.640        0.210
  YS02001907           JUNCTION        0.65          0.950        0.000
  YS02001910           JUNCTION        0.45          0.966        0.134
  YS02001915           JUNCTION        0.37          0.916        0.084
  YS02001918           JUNCTION        0.29          0.810        0.000
  YS02001920           JUNCTION        0.30          1.060        0.080
  YS02001923           JUNCTION        0.02          0.769        0.051
  YS02001926           JUNCTION        0.03          0.900        0.000
  YS02001929           JUNCTION        0.01          0.780        0.000
  YS02006553           JUNCTION        0.67          0.984        0.206
  YS02006556           JUNCTION        0.55          0.935        0.415
  YS02006558           JUNCTION        0.53          0.936        0.464
  YS02006561           JUNCTION        0.25          0.106        1.044
  YS02163301           JUNCTION        0.75          0.937        0.093
  YS02163601           JUNCTION        0.80          1.052        0.028
  YS02164001           JUNCTION        0.69          0.967        0.133
  YSB1154              JUNCTION        0.85          1.295        0.105
  YSB1171              JUNCTION        0.86          1.100        0.000
  YSB1174              JUNCTION        0.76          1.143        0.107
  YSB6556              JUNCTION        0.69          1.086        0.014
  
  
  *********************
  Node Flooding Summary
  *********************
  
  Flooding refers to all water that overflows a node, whether it ponds or not.
  --------------------------------------------------------------------------
                                                             Total   Maximum
                                 Maximum   Time of Max       Flood    Ponded
                        Hours       Rate    Occurrence      Volume     Depth
  Node                 Flooded       LPS   days hr:min    10^6 ltr    Meters
  --------------------------------------------------------------------------
  HS02004770              0.34    931.57      0  02:13       0.546     0.000
  HS02004777              0.01     23.69      0  02:04       0.000     0.000
  HS02004785              0.01    128.40      0  02:04       0.000     0.000
  HS02004788              0.01    180.28      0  02:04       0.001     0.000
  HS02004792              0.34   1542.99      0  02:14       0.993     0.000
  HS02004799              0.12    147.37      0  02:13       0.032     0.000
  HS02004807              0.01     20.86      0  02:08       0.000     0.000
  HS02004842              0.01     99.27      0  02:08       0.001     0.000
  HS02004856              0.01     13.54      0  02:08       0.000     0.000
  HS02004862              0.01     11.53      0  02:08       0.000     0.000
  HS02004901              0.41    599.40      0  02:13       0.602     0.000
  WS02006109              0.38    280.51      0  02:13       0.212     0.000
  WS02006228              0.01      1.61      0  02:08       0.000     0.000
  WS02006230              0.66    572.07      0  02:13       0.869     0.000
  WS02006232              0.16      5.38      0  02:01       0.000     0.000
  WS02006234              0.72    129.05      0  02:12       0.196     0.000
  WS02006242              0.85    137.58      0  02:27       0.353     0.000
  WS02006243              0.01     81.13      0  01:46       0.000     0.000
  WS02006245              0.01     58.20      0  01:46       0.000     0.000
  WS02006247              0.01    118.50      0  01:46       0.000     0.000
  WS02006248              1.25    339.22      0  02:13       1.167     0.000
  WS02006249              1.50   1286.14      0  02:13       3.823     0.000
  WS02006251              0.01    338.24      0  01:47       0.000     0.000
  WS02006252              0.40    594.93      0  02:13       0.358     0.000
  WS02006256              0.70    293.73      0  02:05       0.407     0.000
  YS02001580              0.01     13.35      0  02:04       0.000     0.000
  YS02001583              0.01     73.86      0  02:04       0.000     0.000
  YS02001586              0.39    303.22      0  02:15       0.213     0.000
  YS02001600              0.01      2.34      0  02:04       0.000     0.000
  YS02001601              0.54    960.57      0  02:14       0.948     0.000
  YS02001602              0.40     62.07      0  02:12       0.081     0.000
  YS02001610              0.35    538.02      0  02:15       0.393     0.000
  YS02001616              0.01      0.60      0  02:12       0.000     0.000
  YS02001619              0.01      0.61      0  02:12       0.000     0.000
  YS02001625              0.30   1131.73      0  02:15       0.616     0.000
  YS02001629              0.07    137.03      0  02:12       0.019     0.000
  YS02001644              0.09    385.11      0  02:13       0.075     0.000
  YS02001770              0.01      1.23      0  02:12       0.000     0.000
  YS02001779              0.06    181.03      0  02:09       0.011     0.000
  YS02001890              0.11    131.59      0  02:13       0.026     0.000
  YS02001907              0.24   1285.60      0  02:14       0.601     0.000
  YS02001918              0.01     69.09      0  02:10       0.000     0.000
  YS02001926              0.01     47.86      0  02:10       0.000     0.000
  YS02001929              0.01    265.42      0  02:10       0.001     0.000
  YSB1171                 0.22    837.18      0  02:14       0.359     0.000
  
  
  **********************
  Storage Volume Summary
  **********************
  
  --------------------------------------------------------------------------------------------------
                         Average     Avg  Evap Exfil       Maximum     Max    Time of Max    Maximum
                          Volume    Pcnt  Pcnt  Pcnt        Volume    Pcnt     Occurrence    Outflow
  Storage Unit           1000 m3    Full  Loss  Loss       1000 m3    Full    days hr:min        LPS
  --------------------------------------------------------------------------------------------------
  CC-storage               1.907      30     0     0         3.991      62       0  02:36    1783.53
  JK-storage               0.068      23     0     0         0.212      73       0  02:05    2300.00
  XR-storage               0.927      64     0     0         1.111      77       0  08:00     380.00
  
  
  ***********************
  Outfall Loading Summary
  ***********************
  
  -----------------------------------------------------------
                         Flow       Avg       Max       Total
                         Freq      Flow      Flow      Volume
  Outfall Node           Pcnt       LPS       LPS    10^6 ltr
  -----------------------------------------------------------
  CC-1                  40.56    683.00    683.00       4.765
  CC-2                  29.70    683.00    683.00       3.340
  JK-1                   6.73   1000.00   1000.00       1.421
  JK-2                   8.25   1000.00   1000.00       1.503
  WSC                   99.95    577.29   1508.93      13.858
  -----------------------------------------------------------
  System                37.04   3943.29   1508.93      24.886
  
  
  ********************
  Link Flow Summary
  ********************
  
  -----------------------------------------------------------------------------
                                 Maximum  Time of Max   Maximum    Max/    Max/
                                  |Flow|   Occurrence   |Veloc|    Full    Full
  Link                 Type          LPS  days hr:min     m/sec    Flow   Depth
  -----------------------------------------------------------------------------
  1                    CONDUIT   1508.93     0  02:16      3.70    0.53    0.52
  HS02004478WS02006287 CONDUIT   2301.80     0  02:13      2.57    0.64    1.00
  HS02004479HS02004480 CONDUIT    394.23     0  02:08      0.56    0.38    1.00
  HS02004480HS02004478 CONDUIT   2072.84     0  02:06      2.96    8.73    1.00
  HS02004770HS02004777 CONDUIT    712.81     0  02:04      1.02    1.30    1.00
  HS02004777HS02004785 CONDUIT    728.90     0  02:04      1.10    0.90    1.00
  HS02004785HS02004788 CONDUIT    691.21     0  02:04      1.36    5.21    1.00
  HS02004788HS02004792 CONDUIT    833.03     0  02:05      1.43    0.55    1.00
  HS02004792HS02004799 CONDUIT   1626.84     0  02:05      2.32    1.00    1.00
  HS02004799HS02004480 CONDUIT   1748.94     0  02:05      2.50    2.21    1.00
  HS02004802HS02004478 CONDUIT   1191.20     0  02:13      1.70    1.05    1.00
  HS02004807HS02004802 CONDUIT   1191.23     0  02:13      1.70    2.27    1.00
  HS02004817HS02004807 CONDUIT    843.24     0  02:14      1.20    0.50    1.00
  HS02004817HS02004824 CONDUIT    841.99     0  02:14      1.20    0.38    1.00
  HS02004824HS02004830 CONDUIT    607.61     0  02:05      0.90    0.80    1.00
  HS02004830HS02004837 CONDUIT    589.45     0  02:05      0.90    0.59    1.00
  HS02004837HS02004842 CONDUIT    766.38     0  02:08      1.09    0.46    1.00
  HS02004842HS02004848 CONDUIT    767.07     0  02:08      1.19    0.45    1.00
  HS02004848HS02004852 CONDUIT   1024.20     0  02:08      1.57    1.15    1.00
  HS02004852HS02004856 CONDUIT    986.78     0  02:07      1.46    1.13    1.00
  HS02004856HS02004862 CONDUIT   1062.85     0  02:08      1.68    1.06    1.00
  HS02004862HS02004870 CONDUIT   1132.89     0  02:07      1.94    1.22    1.00
  HS02004870HS02004876 CONDUIT   1203.83     0  02:07      1.94    0.80    1.00
  HS02004876HS02004881 CONDUIT   1403.24     0  02:13      2.53   14.93    1.00
  HS02004881HS02006253 CONDUIT   1512.15     0  02:13      2.67    0.30    1.00
  HS02004901HS02004770 CONDUIT    265.79     0  02:25      0.38    1.00    1.00
  WS02001211WS02001212 CONDUIT    209.69     0  03:13      0.54    0.16    0.69
  WS02001212WS02001213 CONDUIT    214.16     0  03:13      1.04    0.33    0.56
  WS02001213WS02003059 CONDUIT    219.15     0  03:13      0.47    0.36    0.89
  WS02003059WS02003060 CONDUIT    223.56     0  02:49      0.66    0.15    0.81
  WS02003060WS02003069 CONDUIT   1505.93     0  02:15      2.08    0.59    0.61
  WS02003066WSF200     CONDUIT   1306.07     0  02:14      3.25    0.22    0.39
  WS02003067WS02003066 CONDUIT   1305.99     0  02:14      2.00    0.42    0.56
  WS02003069WS02003072 CONDUIT   1506.13     0  02:15      1.89    0.73    0.66
  WS02003072WS02003073 CONDUIT   1506.40     0  02:16      2.05    3.25    0.62
  WS02004138WS02004139 CONDUIT    190.00     0  00:31      2.17    0.04    0.42
  WS02004139WS02001211 CONDUIT    198.60     0  03:12      0.54    0.25    0.61
  WS02004401WS02004402 CONDUIT   1307.36     0  02:13      1.66    1.57    1.00
  WS02004402WS02004403 CONDUIT   1307.24     0  02:13      1.66    1.88    1.00
  WS02004403WS02004404 CONDUIT   1307.59     0  02:13      1.66    0.95    1.00
  WS02004404WS02004405 CONDUIT   1308.54     0  02:13      1.67   12.82    1.00
  WS02004405WS02004406 CONDUIT   1307.84     0  02:13      1.67    2.58    1.00
  WS02004406WS02004407 CONDUIT   1307.93     0  02:13      1.77    0.58    0.97
  WS02004407WS02004409 CONDUIT   1305.65     0  02:14      1.78    0.46    0.97
  WS02004409WS02004410 CONDUIT   1305.87     0  02:14      1.66    1.69    1.00
  WS02004410WS02004411 CONDUIT   1305.74     0  02:13      1.66    1.78    1.00
  WS02004411WS02004412 CONDUIT   1305.82     0  02:14      1.66    1.85    1.00
  WS02004412WS02004413 CONDUIT   1305.54     0  02:14      1.66    0.87    1.00
  WS02004413WS02003067 CONDUIT   1305.76     0  02:14      2.02    0.56    0.77
  WS02006109WS02006110 CONDUIT   1120.17     0  02:28      2.23    2.15    1.00
  WS02006110WS02006113 CONDUIT   1120.56     0  02:28      2.23    1.02    1.00
  WS02006111WS02006112 CONDUIT   1120.50     0  02:28      2.23    0.53    1.00
  WS02006112WS02006115 CONDUIT   1305.66     0  02:13      1.66    0.77    1.00
  WS02006113WS02006111 CONDUIT   1120.35     0  02:28      2.64    1.34    1.00
  WS02006115WS02006116 CONDUIT   1306.31     0  02:13      1.66    1.68    1.00
  WS02006116WS02004401 CONDUIT   1307.26     0  02:13      1.66    1.80    1.00
  WS02006228WS02006109 CONDUIT   1286.98     0  02:13      2.56    5.62    1.00
  WS02006229WS02006228 CONDUIT   1287.18     0  02:13      2.56    4.26    1.00
  WS02006230WS02006229 CONDUIT   1014.68     0  02:13      2.64   22.58    1.00
  WS02006231WS02006230 CONDUIT    453.29     0  02:09      1.21    6.88    1.00
  WS02006232WS02006231 CONDUIT    453.42     0  02:06      1.18    0.95    1.00
  WS02006234WS02006232 CONDUIT    453.29     0  02:23      1.41    0.92    1.00
  WS02006235WS02006234 CONDUIT    419.84     0  02:30      1.21    4.43    1.00
  WS02006238WS02006235 CONDUIT    415.82     0  02:28      1.45    0.93    1.00
  WS02006239WS02006238 CONDUIT    415.27     0  02:28      1.11    1.33    1.00
  WS02006240WS02006239 CONDUIT    415.04     0  02:29      1.26    1.31    1.00
  WS02006242WS02006240 CONDUIT    415.06     0  02:25      1.14    1.65    1.00
  WS02006243WS02006242 CONDUIT    400.75     0  03:25      1.34    0.86    1.00
  WS02006245WS02006243 CONDUIT    400.67     0  03:25      1.39    1.19    1.00
  WS02006247WS02006245 CONDUIT    400.75     0  03:25      1.37    3.18    1.00
  WS02006248WS02006247 CONDUIT    400.41     0  03:25      1.38    0.87    1.00
  WS02006249WS02006248 CONDUIT    430.24     0  03:21      1.38    2.36    1.00
  WS02006251WS02006249 CONDUIT   1347.08     0  02:13      3.50    3.88    1.00
  WS02006252WS02006251 CONDUIT    404.32     0  03:55     21.33    1.48    1.00
  WS02006253WS02006251 CONDUIT   1547.84     0  02:13      4.02    4.64    1.00
  WS02006256WS02006235 CONDUIT    288.93     0  00:00      4.23    3.06    1.00
  WS02006280WS02006229 CONDUIT   2302.91     0  02:13      4.21    0.49    1.00
  WS02006284WS02006280 CONDUIT   2302.15     0  02:13      3.02    0.96    1.00
  WS02006287WS02006284 CONDUIT   2301.42     0  02:13      2.93    1.07    1.00
  WSF200WS02003060     CONDUIT   1306.27     0  02:14      2.29    0.29    0.50
  YS02001580YS02001583 CONDUIT     79.26     0  02:04      0.57    0.31    1.00
  YS02001583YS02001586 CONDUIT    140.13     0  02:03      0.58    0.21    1.00
  YS02001586YS02001590 CONDUIT    317.90     0  02:09      1.26    0.56    1.00
  YS02001590YS02001593 CONDUIT    317.97     0  02:27      1.12    2.00    1.00
  YS02001593YS02001596 CONDUIT    317.93     0  02:23      1.76    0.50    1.00
  YS02001596YS02001600 CONDUIT    317.98     0  02:27      1.24    0.62    1.00
  YS02001600YS02001601 CONDUIT    317.98     0  02:12      1.12    0.55    1.00
  YS02001601YS02001602 CONDUIT    500.41     0  02:03      1.77    1.81    1.00
  YS02001602YS02001605 CONDUIT    500.58     0  02:03      1.77   10.59    1.00
  YS02001605YS02001607 CONDUIT    500.40     0  02:03      1.77    2.74    1.00
  YS02001607YS02001610 CONDUIT    499.42     0  02:03      0.64    0.47    1.00
  YS02001610YS02001613 CONDUIT    501.62     0  02:03      0.64    0.58    1.00
  YS02001613YS02001616 CONDUIT    496.27     0  02:03      0.64    0.43    1.00
  YS02001616YS02001619 CONDUIT    495.03     0  02:03      0.66    0.86    1.00
  YS02001619YS02001622 CONDUIT    941.64     0  02:08      1.20    1.39    1.00
  YS02001622YS02001625 CONDUIT    941.52     0  02:08      1.20    0.50    1.00
  YS02001625YS02001629 CONDUIT    940.83     0  02:08      1.20    0.45    1.00
  YS02001629YS02163301 CONDUIT    941.18     0  02:07      1.20    1.16    1.00
  YS02001633YS02163601 CONDUIT   1398.07     0  02:08      1.78    1.47    1.00
  YS02001641YS02001644 CONDUIT   1392.88     0  02:08      1.77    4.50    1.00
  YS02001644YS02001647 CONDUIT   1794.52     0  02:08      2.29    1.05    1.00
  YS02001647YS02001649 CONDUIT   1808.39     0  02:08      2.36    0.95    1.00
  YS02001649YS02001757 CONDUIT   2082.33     0  02:08      2.66    1.26    1.00
  YS02001652YS02001649 CONDUIT    766.11     0  02:13      0.98    0.38    1.00
  YS02001655YS02001652 CONDUIT    764.67     0  02:13      1.26    0.37    1.00
  YS02001658YS02001655 CONDUIT    763.49     0  02:13      1.88    0.32    1.00
  YS02001661YS02001658 CONDUIT    762.82     0  02:13      2.31    0.30    1.00
  YS02001664YS02001661 CONDUIT    882.49     0  02:13      2.32    0.28    0.73
  YS02001745YS02001748 CONDUIT    535.95     0  02:12      2.14    0.21    0.84
  YS02001748YS02001751 CONDUIT    437.13     0  02:13      1.64    0.22    1.00
  YS02001751YS02001754 CONDUIT    435.78     0  02:13      1.37    0.21    1.00
  YS02001754YS02001757 CONDUIT    437.34     0  02:13      0.56    0.18    1.00
  YS02001757CaochengTiaoxuchi CONDUIT   3470.28     0  02:13      4.43    1.50    1.00
  YS02001759YS02001757 CONDUIT   1372.29     0  02:13      1.75    0.98    1.00
  YS02001762YS02001759 CONDUIT    776.72     0  02:15      0.99    0.89    1.00
  YS02001765YS02001762 CONDUIT    776.50     0  02:15      0.99    0.73    1.00
  YS02001767YS02001765 CONDUIT    776.15     0  02:15      0.99    0.98    1.00
  YS02001770YS02001767 CONDUIT    775.08     0  02:15      0.99    3.07    1.00
  YS02001774YS02001770 CONDUIT    256.37     0  02:09      0.33    0.16    1.00
  YS02001779YS02001774 CONDUIT    257.35     0  02:09      0.33    0.13    1.00
  YS02001783YS02001784 CONDUIT   1158.68     0  02:12      2.31    1.60    1.00
  YS02001784YS02001785 CONDUIT   1159.74     0  02:13      2.31    2.70    1.00
  YS02001786YS02001788 CONDUIT   1160.50     0  02:12      2.48    2.24    0.89
  YS02001788YS02001790 CONDUIT   1175.38     0  02:12      2.72    0.87    0.84
  YS02001790YS02001791 CONDUIT   1285.36     0  02:11      3.42    1.40    0.70
  YS02001791YS02001793 CONDUIT   1247.20     0  02:12      6.78    0.54    0.41
  YS02001793JiankangQianchi CONDUIT   1246.61     0  02:12      2.50    0.10    0.61
  YS02001882YS02001884 CONDUIT     24.98     0  02:06      0.13    0.03    1.00
  YS02001884YS02001887 CONDUIT     60.12     0  02:06      0.09    0.08    1.00
  YS02001887YS02001890 CONDUIT    640.65     0  02:13      0.82    1.10    1.00
  YS02001890YS02001895 CONDUIT    516.64     0  02:15      0.66    0.24    1.00
  YS02001895YS02001898 CONDUIT    517.32     0  02:15      0.66    0.90    1.00
  YS02001898YS02001901 CONDUIT    517.11     0  02:15      0.66    0.33    1.00
  YS02001901YS02001904 CONDUIT    516.89     0  02:15      0.66    0.80    1.00
  YS02001904YS02001907 CONDUIT    517.02     0  02:15      0.66    0.18    1.00
  YS02001907YS02006553 CONDUIT    797.54     0  02:25      0.89    0.94    1.00
  YS02001910YS02001907 CONDUIT   1108.02     0  02:13      1.41    0.62    1.00
  YS02001915YS02001910 CONDUIT   1107.69     0  02:14      1.41    0.55    1.00
  YS02001918YS02001915 CONDUIT    456.90     0  02:10      0.58    0.25    1.00
  YS02001920YS02001918 CONDUIT    455.21     0  02:10      0.65    0.44    1.00
  YS02001923YS02001920 CONDUIT    451.17     0  02:10      0.71    0.20    1.00
  YS02001926YS02001923 CONDUIT    424.84     0  02:10      0.97    0.61    1.00
  YS02001929YS02001926 CONDUIT    420.58     0  02:10      1.12    0.20    1.00
  YS02006553YS02006556 CONDUIT    796.99     0  02:25      1.01    0.68    1.00
  YS02006556YS02006558 CONDUIT    799.72     0  02:25      1.02    0.63    1.00
  YS02006558YS02006561 CONDUIT   1159.03     0  02:12      4.10    2.56    1.00
  YS02006561YS02001783 CONDUIT   1158.81     0  02:13      2.31    0.60    1.00
  YS02163301YS02001633 CONDUIT    940.97     0  02:07      1.20    0.88    1.00
  YS02163601YS02164001 CONDUIT   1397.03     0  02:08      1.78    1.24    1.00
  YS02164001YS02001641 CONDUIT   1394.37     0  02:08      1.78    1.90    1.00
  YSB1154YSB6556       CONDUIT    358.33     0  02:13      0.93    0.64    1.00
  YSB1171HS02004479    CONDUIT    394.07     0  02:08      0.78    0.26    1.00
  YSB1174YSB1171       CONDUIT    303.15     0  02:13      0.79    0.46    1.00
  YSB6556YSB1171       CONDUIT    359.30     0  02:13      0.93    0.37    1.00
  CC-R1                PUMP       683.00     0  00:00              1.00
  CC-R2                PUMP       683.00     0  00:00              1.00
  CC-S1                PUMP       200.00     0  00:00              1.00
  CC-S2                PUMP       200.00     0  00:00              1.00
  JK-R1                PUMP      1000.00     0  00:00              1.00
  JK-R2                PUMP      1000.00     0  00:00              1.00
  JK-S                 PUMP       300.00     0  00:00              1.00
  XR-1                 PUMP        95.00     0  00:00              1.00
  XR-2                 PUMP        95.00     0  00:00              1.00
  XR-3                 PUMP        95.00     0  00:00              1.00
  XR-4                 PUMP        95.00     0  00:00              1.00
  
  
  ***************************
  Flow Classification Summary
  ***************************
  
  -------------------------------------------------------------------------------------
                      Adjusted    ---------- Fraction of Time in Flow Class ---------- 
                       /Actual         Up    Down  Sub   Sup   Up    Down  Norm  Inlet 
  Conduit               Length    Dry  Dry   Dry   Crit  Crit  Crit  Crit  Ltd   Ctrl  
  -------------------------------------------------------------------------------------
  1                       1.00   0.00  0.00  0.00  0.00  1.00  0.00  0.00  0.34  0.00
  HS02004478WS02006287    1.00   0.18  0.00  0.00  0.53  0.29  0.00  0.00  0.59  0.00
  HS02004479HS02004480    1.00   0.09  0.00  0.00  0.91  0.00  0.00  0.00  0.11  0.00
  HS02004480HS02004478    1.00   0.17  0.00  0.00  0.45  0.00  0.00  0.38  0.00  0.00
  HS02004770HS02004777    1.00   0.00  0.17  0.00  0.83  0.00  0.00  0.00  0.03  0.00
  HS02004777HS02004785    1.00   0.00  0.00  0.00  1.00  0.00  0.00  0.00  0.12  0.00
  HS02004785HS02004788    1.00   0.00  0.00  0.00  1.00  0.00  0.00  0.00  0.00  0.00
  HS02004788HS02004792    1.00   0.00  0.00  0.00  0.99  0.01  0.00  0.00  0.90  0.00
  HS02004792HS02004799    1.00   0.00  0.00  0.00  0.98  0.02  0.00  0.00  0.86  0.00
  HS02004799HS02004480    1.00   0.00  0.09  0.00  0.82  0.00  0.09  0.00  0.00  0.00
  HS02004802HS02004478    1.00   0.17  0.00  0.00  0.83  0.00  0.00  0.00  0.02  0.00
  HS02004807HS02004802    1.00   0.17  0.00  0.00  0.82  0.00  0.00  0.01  0.00  0.00
  HS02004817HS02004807    1.00   0.00  0.17  0.00  0.83  0.00  0.00  0.00  0.01  0.00
  HS02004817HS02004824    1.00   0.00  0.00  0.00  1.00  0.00  0.00  0.00  0.82  0.00
  HS02004824HS02004830    1.00   0.00  0.00  0.00  1.00  0.00  0.00  0.00  0.01  0.00
  HS02004830HS02004837    1.00   0.00  0.00  0.00  1.00  0.00  0.00  0.00  0.88  0.00
  HS02004837HS02004842    1.00   0.00  0.00  0.00  1.00  0.00  0.00  0.00  0.11  0.00
  HS02004842HS02004848    1.00   0.00  0.17  0.00  0.83  0.00  0.00  0.00  0.57  0.00
  HS02004848HS02004852    1.00   0.17  0.00  0.00  0.83  0.00  0.00  0.00  0.70  0.00
  HS02004852HS02004856    1.00   0.17  0.00  0.00  0.83  0.00  0.00  0.00  0.68  0.00
  HS02004856HS02004862    1.00   0.00  0.18  0.00  0.82  0.00  0.00  0.00  0.74  0.00
  HS02004862HS02004870    1.00   0.00  0.00  0.00  1.00  0.00  0.00  0.00  0.03  0.00
  HS02004870HS02004876    1.00   0.00  0.00  0.00  0.96  0.03  0.00  0.00  0.86  0.00
  HS02004876HS02004881    1.00   0.04  0.00  0.00  0.74  0.23  0.00  0.00  0.00  0.00
  HS02004881HS02006253    1.00   0.01  0.12  0.00  0.36  0.03  0.00  0.48  0.16  0.00
  HS02004901HS02004770    1.00   0.17  0.00  0.00  0.83  0.00  0.00  0.00  0.00  0.00
  WS02001211WS02001212    1.00   0.00  0.05  0.00  0.95  0.00  0.00  0.00  0.00  0.00
  WS02001212WS02001213    1.00   0.05  0.01  0.00  0.42  0.00  0.52  0.00  0.00  0.00
  WS02001213WS02003059    1.00   0.00  0.00  0.00  0.99  0.00  0.00  0.00  0.00  0.00
  WS02003059WS02003060    1.00   0.00  0.00  0.00  1.00  0.00  0.00  0.00  0.03  0.00
  WS02003060WS02003069    1.00   0.00  0.00  0.00  0.98  0.02  0.00  0.00  0.48  0.00
  WS02003066WSF200        1.00   0.13  0.00  0.00  0.00  0.87  0.00  0.00  0.69  0.00
  WS02003067WS02003066    1.00   0.13  0.00  0.00  0.87  0.00  0.00  0.00  0.00  0.00
  WS02003069WS02003072    1.00   0.00  0.00  0.00  1.00  0.00  0.00  0.00  0.68  0.00
  WS02003072WS02003073    1.00   0.00  0.00  0.00  0.00  0.00  0.00  1.00  0.00  0.00
  WS02004138WS02004139    1.00   0.00  0.01  0.00  0.94  0.02  0.00  0.02  0.98  0.00
  WS02004139WS02001211    1.00   0.00  0.00  0.00  0.99  0.00  0.00  0.00  0.00  0.00
  WS02004401WS02004402    1.00   0.05  0.00  0.00  0.94  0.00  0.00  0.00  0.00  0.00
  WS02004402WS02004403    1.00   0.06  0.00  0.00  0.94  0.00  0.00  0.00  0.00  0.00
  WS02004403WS02004404    1.00   0.00  0.06  0.00  0.94  0.00  0.00  0.00  0.00  0.00
  WS02004404WS02004405    1.00   0.00  0.00  0.00  1.00  0.00  0.00  0.00  0.01  0.00
  WS02004405WS02004406    1.00   0.00  0.00  0.00  1.00  0.00  0.00  0.00  0.00  0.00
  WS02004406WS02004407    1.00   0.00  0.10  0.00  0.90  0.00  0.00  0.00  0.00  0.00
  WS02004407WS02004409    1.00   0.10  0.00  0.00  0.88  0.02  0.00  0.00  0.83  0.00
  WS02004409WS02004410    1.00   0.10  0.00  0.00  0.90  0.00  0.00  0.00  0.00  0.00
  WS02004410WS02004411    1.00   0.11  0.00  0.00  0.89  0.00  0.00  0.00  0.00  0.00
  WS02004411WS02004412    1.00   0.11  0.00  0.00  0.89  0.00  0.00  0.00  0.00  0.00
  WS02004412WS02004413    1.00   0.12  0.00  0.00  0.88  0.00  0.00  0.00  0.00  0.00
  WS02004413WS02003067    1.00   0.12  0.01  0.00  0.00  0.00  0.87  0.00  0.00  0.00
  WS02006109WS02006110    1.00   0.00  0.01  0.00  0.97  0.00  0.02  0.00  0.00  0.00
  WS02006110WS02006113    1.00   0.01  0.03  0.00  0.97  0.00  0.00  0.00  0.00  0.00
  WS02006111WS02006112    1.00   0.04  0.00  0.00  0.95  0.01  0.00  0.01  0.78  0.00
  WS02006112WS02006115    1.00   0.04  0.01  0.00  0.94  0.00  0.01  0.00  0.00  0.00
  WS02006113WS02006111    1.00   0.03  0.00  0.00  0.25  0.72  0.00  0.00  0.08  0.00
  WS02006115WS02006116    1.00   0.05  0.00  0.00  0.93  0.00  0.00  0.02  0.00  0.00
  WS02006116WS02004401    1.00   0.05  0.00  0.00  0.95  0.00  0.00  0.00  0.00  0.00
  WS02006228WS02006109    1.00   0.00  0.00  0.00  1.00  0.00  0.00  0.00  0.00  0.00
  WS02006229WS02006228    1.00   0.00  0.00  0.00  0.99  0.00  0.00  0.01  0.00  0.00
  WS02006230WS02006229    1.00   0.00  0.00  0.00  0.98  0.00  0.00  0.02  0.04  0.00
  WS02006231WS02006230    1.00   0.00  0.00  0.00  0.45  0.00  0.55  0.00  0.00  0.00
  WS02006232WS02006231    1.00   0.00  0.00  0.00  0.99  0.00  0.01  0.00  0.00  0.00
  WS02006234WS02006232    1.00   0.00  0.00  0.00  1.00  0.00  0.00  0.00  0.03  0.00
  WS02006235WS02006234    1.00   0.00  0.00  0.00  0.94  0.00  0.06  0.00  0.00  0.00
  WS02006238WS02006235    1.00   0.00  0.00  0.00  1.00  0.00  0.00  0.00  0.00  0.00
  WS02006239WS02006238    1.00   0.00  0.00  0.00  1.00  0.00  0.00  0.00  0.10  0.00
  WS02006240WS02006239    1.00   0.00  0.00  0.00  0.81  0.00  0.00  0.19  0.02  0.00
  WS02006242WS02006240    1.00   0.00  0.00  0.00  1.00  0.00  0.00  0.00  0.00  0.00
  WS02006243WS02006242    1.00   0.00  0.00  0.00  1.00  0.00  0.00  0.00  0.65  0.00
  WS02006245WS02006243    1.00   0.00  0.00  0.00  0.88  0.00  0.00  0.12  0.01  0.00
  WS02006247WS02006245    1.00   0.00  0.00  0.00  0.99  0.00  0.00  0.01  0.00  0.00
  WS02006248WS02006247    1.00   0.00  0.00  0.00  1.00  0.00  0.00  0.00  0.59  0.00
  WS02006249WS02006248    1.00   0.00  0.00  0.00  0.63  0.00  0.37  0.00  0.00  0.00
[...]
  WS02006284WS02006280    1.00   0.17  0.00  0.00  0.14  0.01  0.00  0.67  0.00  0.00
  WS02006287WS02006284    1.00   0.16  0.02  0.00  0.42  0.40  0.00  0.00  0.66  0.00
  WSF200WS02003060        1.00   0.00  0.13  0.00  0.46  0.40  0.00  0.00  0.66  0.00
  YS02001580YS02001583    1.00   0.33  0.40  0.00  0.27  0.00  0.00  0.00  0.66  0.00
  YS02001583YS02001586    1.00   0.37  0.28  0.00  0.35  0.00  0.00  0.00  0.66  0.00
  YS02001586YS02001590    1.00   0.17  0.00  0.00  0.56  0.03  0.00  0.25  0.35  0.00
  YS02001590YS02001593    1.00   0.17  0.00  0.00  0.14  0.00  0.69  0.00  0.00  0.00
  YS02001593YS02001596    1.00   0.17  0.00  0.00  0.17  0.01  0.00  0.64  0.02  0.00
  YS02001596YS02001600    1.00   0.17  0.00  0.00  0.28  0.02  0.00  0.52  0.05  0.00
  YS02001600YS02001601    1.00   0.17  0.00  0.00  0.83  0.00  0.00  0.00  0.62  0.00
  YS02001601YS02001602    1.00   0.17  0.00  0.00  0.83  0.00  0.00  0.00  0.00  0.00
  YS02001602YS02001605    1.00   0.17  0.00  0.00  0.83  0.00  0.00  0.00  0.00  0.00
  YS02001605YS02001607    1.00   0.17  0.00  0.00  0.83  0.00  0.00  0.00  0.00  0.00
  YS02001607YS02001610    1.00   0.17  0.00  0.00  0.83  0.00  0.00  0.00  0.01  0.00
  YS02001610YS02001613    1.00   0.17  0.00  0.00  0.83  0.00  0.00  0.00  0.00  0.00
  YS02001613YS02001616    1.00   0.17  0.00  0.00  0.83  0.00  0.00  0.00  0.00  0.00
  YS02001616YS02001619    1.00   0.17  0.00  0.00  0.83  0.00  0.00  0.00  0.00  0.00
  YS02001619YS02001622    1.00   0.17  0.00  0.00  0.83  0.00  0.00  0.00  0.34  0.00
  YS02001622YS02001625    1.00   0.17  0.00  0.00  0.83  0.00  0.00  0.00  0.04  0.00
  YS02001625YS02001629    1.00   0.17  0.02  0.00  0.21  0.00  0.60  0.00  0.00  0.00
  YS02001629YS02163301    1.00   0.18  0.00  0.00  0.82  0.00  0.00  0.00  0.00  0.00
  YS02001633YS02163601    1.00   0.00  0.00  0.00  1.00  0.00  0.00  0.00  0.15  0.00
  YS02001641YS02001644    1.00   0.00  0.00  0.00  1.00  0.00  0.00  0.00  0.00  0.00
  YS02001644YS02001647    1.00   0.00  0.19  0.00  0.81  0.00  0.00  0.00  0.00  0.00
  YS02001647YS02001649    1.00   0.00  0.19  0.00  0.44  0.37  0.00  0.00  0.58  0.00
  YS02001649YS02001757    1.00   0.00  0.00  0.00  0.60  0.40  0.00  0.00  0.53  0.00
  YS02001652YS02001649    1.00   0.00  0.00  0.00  0.98  0.02  0.00  0.00  0.76  0.00
  YS02001655YS02001652    1.00   0.00  0.00  0.00  0.22  0.02  0.00  0.75  0.07  0.00
  YS02001658YS02001655    1.00   0.00  0.17  0.00  0.49  0.34  0.00  0.00  0.72  0.00
  YS02001661YS02001658    1.00   0.17  0.00  0.00  0.34  0.48  0.00  0.00  0.73  0.00
  YS02001664YS02001661    1.00   0.17  0.00  0.00  0.63  0.20  0.00  0.00  0.86  0.00
  YS02001745YS02001748    1.00   0.00  0.00  0.00  0.08  0.01  0.00  0.91  0.04  0.00
  YS02001748YS02001751    1.00   0.00  0.00  0.00  0.72  0.28  0.00  0.00  0.79  0.00
  YS02001751YS02001754    1.00   0.00  0.00  0.00  0.17  0.01  0.00  0.81  0.03  0.00
  YS02001754YS02001757    1.00   0.00  0.00  0.00  1.00  0.00  0.00  0.00  0.85  0.00
  YS02001757CaochengTiaoxuchi    1.00   0.00  0.00  0.00  0.90  0.10  0.00  0.00  0.81  0.00
  YS02001759YS02001757    1.00   0.00  0.00  0.00  1.00  0.00  0.00  0.00  0.62  0.00
  YS02001762YS02001759    1.00   0.00  0.00  0.00  1.00  0.00  0.00  0.00  0.04  0.00
  YS02001765YS02001762    1.00   0.00  0.00  0.00  1.00  0.00  0.00  0.00  0.73  0.00
  YS02001767YS02001765    1.00   0.00  0.00  0.00  1.00  0.00  0.00  0.00  0.00  0.00
  YS02001770YS02001767    1.00   0.00  0.00  0.00  1.00  0.00  0.00  0.00  0.00  0.00
  YS02001774YS02001770    1.00   0.00  0.17  0.00  0.68  0.00  0.15  0.00  0.03  0.00
  YS02001779YS02001774    1.00   0.00  0.00  0.00  1.00  0.00  0.00  0.00  0.79  0.00
  YS02001783YS02001784    1.00   0.00  0.20  0.00  0.80  0.00  0.00  0.00  0.57  0.00
  YS02001784YS02001785    1.00   0.00  0.00  0.00  1.00  0.00  0.00  0.00  0.17  0.00
  YS02001786YS02001788    1.00   0.00  0.00  0.00  0.64  0.36  0.00  0.00  0.00  0.00
  YS02001788YS02001790    1.00   0.00  0.00  0.00  0.23  0.77  0.00  0.00  0.81  0.00
  YS02001790YS02001791    1.00   0.00  0.00  0.00  0.02  0.98  0.00  0.00  0.16  0.00
  YS02001791YS02001793    1.00   0.00  0.00  0.00  0.00  1.00  0.00  0.00  0.01  0.00
  YS02001793JiankangQianchi    1.00   0.00  0.00  0.00  0.96  0.04  0.00  0.00  0.99  0.00
  YS02001882YS02001884    1.00   0.18  0.00  0.00  0.82  0.00  0.00  0.00  0.00  0.00
  YS02001884YS02001887    1.00   0.13  0.03  0.00  0.84  0.00  0.00  0.00  0.00  0.00
  YS02001887YS02001890    1.00   0.00  0.00  0.00  0.93  0.00  0.07  0.00  0.00  0.00
  YS02001890YS02001895    1.00   0.00  0.18  0.00  0.82  0.00  0.00  0.00  0.00  0.00
  YS02001895YS02001898    1.00   0.18  0.00  0.00  0.80  0.00  0.02  0.00  0.00  0.00
  YS02001898YS02001901    1.00   0.18  0.00  0.00  0.82  0.00  0.00  0.00  0.01  0.00
  YS02001901YS02001904    1.00   0.18  0.00  0.00  0.82  0.00  0.00  0.00  0.00  0.00
  YS02001904YS02001907    1.00   0.00  0.18  0.00  0.82  0.00  0.00  0.00  0.00  0.00
  YS02001907YS02006553    1.00   0.00  0.05  0.00  0.95  0.00  0.00  0.00  0.00  0.00
  YS02001910YS02001907    1.00   0.00  0.00  0.00  0.93  0.01  0.00  0.06  0.12  0.00
  YS02001915YS02001910    1.00   0.00  0.00  0.00  0.95  0.05  0.00  0.00  0.15  0.00
  YS02001918YS02001915    1.00   0.00  0.00  0.00  0.94  0.05  0.00  0.00  0.76  0.00
  YS02001920YS02001918    1.00   0.00  0.00  0.00  1.00  0.00  0.00  0.00  0.00  0.00
  YS02001923YS02001920    1.00   0.00  0.00  0.00  1.00  0.00  0.00  0.00  0.94  0.00
  YS02001926YS02001923    1.00   0.00  0.14  0.00  0.06  0.00  0.80  0.00  0.00  0.00
  YS02001929YS02001926    1.00   0.00  0.17  0.00  0.83  0.00  0.00  0.00  0.83  0.00
  YS02006553YS02006556    1.00   0.01  0.00  0.00  0.99  0.00  0.00  0.00  0.03  0.00
  YS02006556YS02006558    1.00   0.00  0.00  0.00  1.00  0.00  0.00  0.00  0.00  0.00
  YS02006558YS02006561    1.00   0.19  0.00  0.00  0.05  0.75  0.00  0.00  0.18  0.00
  YS02006561YS02001783    1.00   0.19  0.00  0.00  0.10  0.71  0.00  0.00  0.70  0.00
  YS02163301YS02001633    1.00   0.00  0.18  0.00  0.82  0.00  0.00  0.00  0.00  0.00
  YS02163601YS02164001    1.00   0.00  0.15  0.00  0.85  0.00  0.00  0.00  0.00  0.00
  YS02164001YS02001641    1.00   0.01  0.14  0.00  0.85  0.00  0.00  0.00  0.05  0.00
  YSB1154YSB6556          1.00   0.17  0.00  0.00  0.83  0.00  0.00  0.00  0.02  0.00
  YSB1171HS02004479       1.00   0.10  0.00  0.00  0.87  0.00  0.00  0.03  0.10  0.00
  YSB1174YSB1171          1.00   0.12  0.03  0.00  0.85  0.00  0.00  0.00  0.00  0.00
  YSB6556YSB1171          1.00   0.10  0.06  0.00  0.83  0.00  0.00  0.00  0.00  0.00
  
  
  *************************
  Conduit Surcharge Summary
  *************************
  
  ----------------------------------------------------------------------------
                                                           Hours        Hours 
                         --------- Hours Full --------   Above Full   Capacity
  Conduit                Both Ends  Upstream  Dnstream   Normal Flow   Limited
  ----------------------------------------------------------------------------
  HS02004478WS02006287        0.45      0.45      0.63      0.01         0.01
  HS02004479HS02004480        0.63      0.63      0.65      0.01         0.01
  HS02004480HS02004478        0.56      0.62      0.56      1.69         0.56
  HS02004770HS02004777        0.53      0.53      0.53      0.11         0.07
  HS02004777HS02004785        0.48      0.48      0.53      0.01         0.01
  HS02004785HS02004788        0.47      0.48      0.47      1.43         0.44
  HS02004788HS02004792        0.47      0.47      0.59      0.01         0.01
  HS02004792HS02004799        0.59      0.59      0.73      0.01         0.01
  HS02004799HS02004480        0.62      0.62      0.73      0.83         0.01
  HS02004802HS02004478        0.57      0.57      0.64      0.04         0.01
  HS02004807HS02004802        0.61      0.61      0.63      0.20         0.21
  HS02004817HS02004807        0.61      0.61      1.23      0.01         0.01
  HS02004817HS02004824        0.47      0.47      1.23      0.01         0.01
  HS02004824HS02004830        0.44      0.44      0.47      0.01         0.01
  HS02004830HS02004837        0.40      0.40      0.44      0.01         0.01
  HS02004837HS02004842        0.40      0.40      0.54      0.01         0.01
  HS02004842HS02004848        0.35      0.35      0.54      0.01         0.01
  HS02004848HS02004852        0.35      0.35      0.38      0.04         0.01
  HS02004852HS02004856        0.38      0.38      0.40      0.03         0.01
  HS02004856HS02004862        0.37      0.37      0.40      0.02         0.01
  HS02004862HS02004870        0.40      0.40      0.42      0.17         0.15
  HS02004870HS02004876        0.42      0.42      0.49      0.01         0.01
  HS02004876HS02004881        0.47      0.49      0.47      1.44         0.47
  HS02004881HS02006253        0.47      0.47      1.49      0.01         0.01
  HS02004901HS02004770        0.53      0.53      0.53      0.01         0.01
  WS02003072WS02003073        0.01      0.01      0.01      2.18         0.01
  WS02004401WS02004402        1.50      1.50      1.52      1.35         1.34
  WS02004402WS02004403        1.52      1.52      1.53      1.49         1.48
  WS02004403WS02004404        1.53      1.53      1.60      0.01         0.02
  WS02004404WS02004405        1.58      1.60      1.58      3.09         1.58
  WS02004405WS02004406        1.57      1.58      1.57      1.82         1.57
  WS02004406WS02004407        0.01      0.01      1.57      0.01         0.01
  WS02004407WS02004409        0.01      0.01      0.99      0.01         0.01
  WS02004409WS02004410        0.92      0.99      0.92      1.39         0.92
  WS02004410WS02004411        0.84      0.92      0.84      1.45         0.84
  WS02004411WS02004412        0.75      0.84      0.75      1.48         0.75
  WS02004412WS02004413        0.75      0.75      1.27      0.01         0.01
  WS02004413WS02003067        0.01      0.01      1.27      0.01         0.01
  WS02006109WS02006110        1.78      1.78      2.01      1.78         0.01
  WS02006110WS02006113        1.25      1.25      2.00      0.25         0.01
  WS02006111WS02006112        1.23      1.23      2.11      0.01         0.01
  WS02006112WS02006115        1.40      1.40      1.85      0.01         0.01
  WS02006113WS02006111        1.24      1.25      1.24      1.34         1.24
  WS02006115WS02006116        1.42      1.42      1.42      1.39         1.37
  WS02006116WS02004401        1.49      1.49      1.50      1.45         1.45
  WS02006228WS02006109        1.99      2.01      1.99      2.23         1.99
  WS02006229WS02006228        1.99      2.00      1.99      2.09         1.99
  WS02006230WS02006229        2.04      2.04      2.04      2.98         0.92
  WS02006231WS02006230        1.60      1.60      1.65      2.48         1.01
  WS02006232WS02006231        1.64      1.64      1.85      0.01         0.14
  WS02006234WS02006232        1.73      1.73      1.85      0.01         0.01
  WS02006235WS02006234        1.70      1.70      1.75      2.24         0.98
  WS02006238WS02006235        1.76      1.76      1.79      0.01         0.32
  WS02006239WS02006238        1.77      1.77      1.77      1.09         0.29
  WS02006240WS02006239        1.68      1.69      1.71      1.05         0.26
  WS02006242WS02006240        1.67      1.67      1.76      1.33         0.84
  WS02006243WS02006242        1.65      1.65      1.73      0.01         0.01
  WS02006245WS02006243        1.62      1.62      1.63      0.22         0.20
  WS02006247WS02006245        1.61      1.62      1.61      1.88         0.39
  WS02006248WS02006247        1.59      1.59      1.62      0.01         0.01
  WS02006249WS02006248        1.58      1.58      1.59      0.87         0.01
  WS02006251WS02006249        1.58      1.59      1.59      1.56         1.47
  WS02006252WS02006251        1.65      1.65      1.70      1.02         0.01
  WS02006253WS02006251        1.58      1.58      1.60      0.74         0.02
  WS02006256WS02006235        2.57      2.61      7.36      0.44         0.01
  WS02006280WS02006229        0.76      0.76      0.86      0.01         0.01
  WS02006284WS02006280        0.65      0.65      0.74      0.01         0.01
  WS02006287WS02006284        0.55      0.55      0.67      0.24         0.24
  YS02001580YS02001583        0.51      0.51      0.54      0.01         0.01
  YS02001583YS02001586        0.52      0.52      0.61      0.01         0.01
  YS02001586YS02001590        0.62      0.62      0.68      0.01         0.01
  YS02001590YS02001593        0.69      0.69      0.71      0.72         0.01
  YS02001593YS02001596        0.70      0.70      0.80      0.01         0.01
  YS02001596YS02001600        0.85      0.85      0.96      0.01         0.01
  YS02001600YS02001601        1.03      1.03      1.34      0.01         0.01
  YS02001601YS02001602        1.23      1.23      1.38      0.98         0.01
  YS02001602YS02001605        1.17      1.17      1.23      2.17         0.01
  YS02001605YS02001607        1.11      1.17      1.11      1.31         1.11
  YS02001607YS02001610        0.64      0.64      0.67      0.01         0.01
  YS02001610YS02001613        0.63      0.63      0.67      0.01         0.01
  YS02001613YS02001616        0.59      0.59      0.63      0.01         0.01
  YS02001616YS02001619        0.58      0.58      0.59      0.01         0.01
  YS02001619YS02001622        0.58      0.58      0.58      0.72         0.55
  YS02001622YS02001625        0.58      0.58      0.76      0.01         0.01
  YS02001625YS02001629        0.52      0.52      0.76      0.01         0.01
  YS02001629YS02163301        0.74      0.74      0.75      0.27         0.26
  YS02001633YS02163601        0.77      0.77      0.80      0.43         0.42
  YS02001641YS02001644        0.64      0.68      0.64      1.43         0.63
  YS02001644YS02001647        0.42      0.42      0.64      0.04         0.01
  YS02001647YS02001649        0.42      0.42      0.51      0.01         0.01
  YS02001649YS02001757        0.50      0.51      0.54      0.34         0.25
  YS02001652YS02001649        0.36      0.36      0.51      0.01         0.01
  YS02001655YS02001652        0.22      0.22      0.34      0.01         0.01
  YS02001658YS02001655        0.11      0.11      0.22      0.01         0.01
  YS02001661YS02001658        0.01      0.01      0.11      0.01         0.01
  YS02001664YS02001661        0.01      0.01      0.01      0.01         0.01
  YS02001745YS02001748        0.01      0.01      0.02      0.01         0.01
  YS02001748YS02001751        0.08      0.08      0.14      0.01         0.01
  YS02001751YS02001754        0.14      0.14      0.23      0.01         0.01
  YS02001754YS02001757        0.26      0.26      0.54      0.01         0.01
  YS02001757CaochengTiaoxuchi        0.46      0.54      1.01      0.35         0.21
  YS02001759YS02001757        0.45      0.45      0.54      0.01         0.02
  YS02001762YS02001759        0.42      0.42      0.45      0.01         0.02
  YS02001765YS02001762        0.39      0.39      0.42      0.01         0.01
  YS02001767YS02001765        0.36      0.36      0.39      0.01         0.04
  YS02001770YS02001767        0.36      0.36      0.36      0.44         0.29
  YS02001774YS02001770        0.35      0.35      0.41      0.01         0.01
  YS02001779YS02001774        0.24      0.24      0.41      0.01         0.01
  YS02001783YS02001784        0.40      0.42      0.40      0.58         0.40
  YS02001784YS02001785        0.30      0.40      0.30      0.81         0.30
  YS02001786YS02001788        0.01      0.30      0.01      0.68         0.01
  YS02001790YS02001791        0.01      0.01      0.01      0.39         0.01
  YS02001793JiankangQianchi        0.01      0.01      6.42      0.01         0.01
  YS02001882YS02001884        0.37      0.37      0.38      0.01         0.01
  YS02001884YS02001887        0.40      0.40      0.41      0.01         0.01
  YS02001887YS02001890        0.43      0.43      0.44      0.05         0.01
  YS02001890YS02001895        0.36      0.36      0.45      0.01         0.01
  YS02001895YS02001898        0.35      0.35      0.36      0.01         0.01
  YS02001898YS02001901        0.36      0.36      0.40      0.01         0.01
  YS02001901YS02001904        0.39      0.39      0.40      0.01         0.01
  YS02001904YS02001907        0.39      0.39      0.67      0.01         0.01
  YS02001907YS02006553        0.81      0.81      0.89      0.01         0.01
  YS02001910YS02001907        0.45      0.45      0.65      0.01         0.01
  YS02001915YS02001910        0.37      0.37      0.45      0.01         0.01
  YS02001918YS02001915        0.29      0.29      0.37      0.01         0.01
  YS02001920YS02001918        0.29      0.29      0.30      0.01         0.01
  YS02001923YS02001920        0.24      0.24      0.30      0.01         0.01
  YS02001926YS02001923        0.02      0.02      0.03      0.01         0.01
  YS02001929YS02001926        0.01      0.01      0.03      0.01         0.01
  YS02006553YS02006556        0.55      0.55      0.67      0.01         0.01
  YS02006556YS02006558        0.60      0.60      0.68      0.01         0.01
  YS02006558YS02006561        0.32      0.53      0.32      0.76         0.32
  YS02006561YS02001783        0.25      0.25      0.42      0.01         0.01
  YS02163301YS02001633        0.75      0.75      0.79      0.01         0.01
  YS02163601YS02164001        0.69      0.69      0.80      0.16         0.01
  YS02164001YS02001641        0.68      0.69      0.68      0.72         0.56
  YSB1154YSB6556              0.69      0.69      0.85      0.01         0.01
  YSB1171HS02004479           0.58      0.58      0.86      0.01         0.01
  YSB1174YSB1171              0.76      0.76      1.13      0.01         0.01
  YSB6556YSB1171              0.69      0.69      1.31      0.01         0.01
  
  
  ***************
  Pumping Summary
  ***************
  
  ---------------------------------------------------------------------------------------------------------
                                                  Min       Avg       Max     Total     Power    % Time Off
                        Percent   Number of      Flow      Flow      Flow    Volume     Usage    Pump Curve
  Pump                 Utilized   Start-Ups       LPS       LPS       LPS  10^6 ltr     Kw-hr    Low   High
  ---------------------------------------------------------------------------------------------------------
  CC-R1                   24.29          25      0.00    683.00    683.00     4.777     84.40    0.0   48.0
  CC-R2                   17.02          25      0.00    683.00    683.00     3.349     59.48    0.0   44.3
  CC-S1                   24.23          31      0.00    200.00    200.00     1.396      9.81    0.0    0.0
  CC-S2                   18.79          31      0.00    200.00    200.00     1.082      7.61    0.0    0.0
  JK-R1                    4.93          16      0.00   1000.00   1000.00     1.420     12.32    0.0    0.0
  JK-R2                    5.23          17      0.00   1000.00   1000.00     1.505     12.45    0.0    0.0
  JK-S                     8.79          32      0.00    300.00    300.00     0.760     13.88    0.0    0.0
  XR-1                    97.91           2      0.00     95.00     95.00     2.679      9.62    0.0    0.0
  XR-2                    93.94           2      0.00     95.00     95.00     2.570      8.78    0.0    0.0
  XR-3                     0.00           1      0.00     95.00     95.00     0.000      0.00    0.0    0.0
  XR-4                     0.00           1      0.00     95.00     95.00     0.000      0.00    0.0    0.0
  

  Analysis begun on:  Thu Jun 15 19:59:28 2023
  Analysis ended on:  Thu Jun 15 19:59:39 2023
  Total elapsed time: 00:00:11