
  OWA STORM WATER MANAGEMENT MODEL - VERSION v5.1.14 (OWA 2022-07-31)
  --------------------------------------------------------------

  WARNING 04: minimum elevation drop used for Conduit WS02004404WS02004405
  WARNING 03: negative offset ignored for Link YS02001904YS02001907
  
  *********************************************************
  NOTE: The summary statistics displayed in this report are
  based on results found at every computational time step,  
  not just on results from each reporting time step.
  *********************************************************
  
  ****************
  Analysis Options
  ****************
  Flow Units ............... LPS
  Process Models:
    Rainfall/Runoff ........ YES
    RDII ................... NO
    Snowmelt ............... NO
    Groundwater ............ NO
    Flow Routing ........... YES
    Ponding Allowed ........ NO
    Water Quality .......... NO
  Infiltration Method ...... HORTON
  Flow Routing Method ...... DYNWAVE
  Surcharge Method ......... EXTRAN
  Starting Date ............ 08/28/2015 08:00:00
  Ending Date .............. 08/28/2015 16:00:00
  Antecedent Dry Days ...... 8.0
  Report Time Step ......... 00:01:00
  Wet Time Step ............ 00:01:00
  Dry Time Step ............ 00:01:00
  Routing Time Step ........ 30.00 sec
  Variable Time Step ....... YES
  Maximum Trials ........... 8
  Number of Threads ........ 2
  Head Tolerance ........... 0.001500 m
  
  
  **************************        Volume         Depth
  Runoff Quantity Continuity     hectare-m            mm
  **************************     ---------       -------
  Initial LID Storage ......         0.072         1.184
  Total Precipitation ......         5.170        85.342
  Evaporation Loss .........         0.000         0.000
  Infiltration Loss ........         0.208         3.436
  Surface Runoff ...........         4.021        66.376
  Final Storage ............         1.014        16.741
  Continuity Error (%) .....        -0.030
  
  
  **************************        Volume        Volume
  Flow Routing Continuity        hectare-m      10^6 ltr
  **************************     ---------     ---------
  Dry Weather Inflow .......         0.630         6.296
  Wet Weather Inflow .......         4.021        40.206
  Groundwater Inflow .......         0.000         0.000
  RDII Inflow ..............         0.000         0.000
  External Inflow ..........         0.105         1.045
  External Outflow .........         2.731        27.312
  Flooding Loss ............         2.017        20.174
  Evaporation Loss .........         0.000         0.000
  Exfiltration Loss ........         0.000         0.000
  Initial Stored Volume ....         0.303         3.031
  Final Stored Volume ......         0.321         3.211
  Continuity Error (%) .....        -0.235
  
  
  *************************
  Highest Continuity Errors
  *************************
  Node YS02001884 (4.98%)
  Node YS02001583 (-3.14%)
  Node WS02006256 (-2.84%)
  Node HS02004842 (1.59%)
  
  
  ***************************
  Time-Step Critical Elements
  ***************************
  Link WS02006280WS02006229 (39.02%)
  Link WS02006252WS02006251 (16.55%)
  Link WS02006238WS02006235 (11.25%)
  Link WS02004404WS02004405 (9.13%)
  Link WS02003066WSF200 (4.47%)
  
  
  ********************************
  Highest Flow Instability Indexes
  ********************************
  Link WS02006113WS02006111 (30)
  Link WS02006238WS02006235 (30)
  Link WS02006252WS02006251 (26)
  Link WS02004404WS02004405 (26)
  Link WS02006229WS02006228 (26)
  
  
  *************************
  Routing Time Step Summary
  *************************
  Minimum Time Step           :     0.01 sec
  Average Time Step           :     2.40 sec
  Maximum Time Step           :     6.46 sec
  Percent in Steady State     :    -0.00
  Average Iterations per Step :     3.90
  Percent Not Converging      :    17.74
  
  
  ***************************
  Subcatchment Runoff Summary
  ***************************
  
  ------------------------------------------------------------------------------------------------------------------------------
                            Total      Total      Total      Total     Imperv       Perv      Total       Total     Peak  Runoff
                           Precip      Runon       Evap      Infil     Runoff     Runoff     Runoff      Runoff   Runoff   Coeff
  Subcatchment                 mm         mm         mm         mm         mm         mm         mm    10^6 ltr      LPS
  ------------------------------------------------------------------------------------------------------------------------------
  sub0                      76.19       0.00       0.00       1.02      69.61       4.32      73.94        0.06    42.89   0.970
  sub1                      76.19       0.00       0.00       1.53      59.67       5.98      65.65        0.44   260.80   0.862
  sub2                      76.19       0.00       0.00       6.82      43.62      19.29      62.91        0.59   267.78   0.826
  sub3                      76.19       0.00       0.00       7.31      43.20      18.56      61.76        1.39   575.20   0.811
  sub4                      76.19       0.00       0.00       1.65      58.79       5.77      64.56        1.35   625.27   0.847
  sub5                      76.19       0.00       0.00       0.87      57.72       3.55      61.28        0.69   424.68   0.804
  sub7                      76.19       0.00       0.00       1.03      52.75       4.28      57.03        0.19   130.07   0.749
  sub8                      76.19       0.00       0.00       1.01      51.26       4.15      55.41        0.35   232.11   0.727
  sub9                      76.19       0.00       0.00       0.98      49.69       4.02      53.72        0.26   169.02   0.705
  sub10                     76.19       0.00       0.00       0.98      55.91       3.98      59.89        0.66   412.86   0.786
  sub11                     76.19       0.00       0.00       0.89      51.96       3.71      55.67        0.65   429.45   0.731
  sub12                     76.19       0.00       0.00       1.57      52.83       6.47      59.30        0.52   366.78   0.778
  sub14                     76.19       0.00       0.00       0.97      49.21       3.99      53.20        0.51   330.04   0.698
  sub15                     76.19       0.00       0.00       4.35      44.24      14.96      59.21        1.02   569.48   0.777
  sub16                     76.19       0.00       0.00       4.64      43.15      17.00      60.16        0.63   385.87   0.790
  sub17                     76.19       0.00       0.00       4.96      47.63      17.86      65.49        0.56   336.07   0.860
  sub22                     76.19       0.00       0.00       7.67      41.30      24.06      65.36        4.13  2068.71   0.858
  sub23                     76.19       0.00       0.00       5.79      42.53      19.64      62.17        2.97  1640.57   0.816
  sub60                     92.91       0.00       0.00       1.43      62.18       7.18      69.35        0.91   650.88   0.746
  sub61                     92.91       0.00       0.00       2.20      62.12      10.71      72.83        1.34   954.61   0.784
  sub62                     92.91       0.00       0.00       0.97      66.23       4.88      71.11        1.95  1323.36   0.765
  sub63                     92.91       0.00       0.00       4.07      53.21      17.99      71.20        1.62  1116.73   0.766
  sub64                     92.91       0.00       0.00       1.95      60.59       8.91      69.51        1.67  1099.33   0.748
  sub65                     92.91       0.00       0.00       1.79      65.41       8.14      73.54        2.02  1292.09   0.792
  sub66                     92.91       0.00       0.00       4.81      51.48      16.55      68.03        3.17  1767.71   0.732
  sub67                     92.91       0.00       0.00       0.96      67.89       5.03      72.93        1.36   990.41   0.785
  sub68                     92.91       0.00       0.00       1.69      59.97       8.22      68.19        1.88  1311.97   0.734
  sub69                     92.91       0.00       0.00       1.58      62.50       9.47      71.97        2.66  1669.18   0.775
  sub70                     92.91       0.00       0.00       5.40      50.09      20.47      70.56        2.04  1031.48   0.759
  sub71                     92.91       0.00       0.00       0.90      60.17       4.41      64.59        1.69  1104.36   0.695
  sub72                     92.91       0.00       0.00       0.86      65.01       4.11      69.13        0.95   578.79   0.744
  

  ***********************
  LID Performance Summary
  ***********************

  --------------------------------------------------------------------------------------------------------------------
                                         Total      Evap     Infil   Surface    Drain    Initial     Final  Continuity
                                        Inflow      Loss      Loss   Outflow   Outflow   Storage   Storage       Error
  Subcatchment      LID Control             mm        mm        mm        mm        mm        mm        mm           %
  --------------------------------------------------------------------------------------------------------------------
  sub1              GreenRoof            76.19      0.00      0.00      0.00      0.00      7.05     83.28       -0.05
  sub2              GreenRoof            76.19      0.00      0.00      0.00      0.00      7.05     83.28       -0.05
  sub3              GreenRoof            76.19      0.00      0.00      0.00      0.00      7.05     83.28       -0.05
  sub4              GreenRoof            76.19      0.00      0.00      0.00      0.00      7.05     83.28       -0.05
  sub5              GreenRoof            76.19      0.00      0.00      0.00      0.00      7.05     83.28       -0.05
  sub7              GreenRoof            76.19      0.00      0.00      0.00      0.00      7.05     83.28       -0.05
  sub8              GreenRoof            76.19      0.00      0.00      0.00      0.00      7.05     83.28       -0.05
  sub9              GreenRoof            76.19      0.00      0.00      0.00      0.00      7.05     83.28       -0.05
  sub10             GreenRoof            76.19      0.00      0.00      0.00      0.00      7.05     83.28       -0.05
  sub11             GreenRoof            76.19      0.00      0.00      0.00      0.00      7.05     83.28       -0.05
  sub12             GreenRoof            76.19      0.00      0.00      0.00      0.00      7.05     83.28       -0.05
  sub14             GreenRoof            76.19      0.00      0.00      0.00      0.00      7.05     83.28       -0.05
  sub15             GreenRoof            76.19      0.00      0.00      0.00      0.00      7.05     83.28       -0.05
  sub16             GreenRoof            76.19      0.00      0.00      0.00      0.00      7.05     83.28       -0.05
  sub17             GreenRoof            76.19      0.00      0.00      0.00      0.00      7.05     83.28       -0.05
  sub22             GreenRoof            76.19      0.00      0.00      0.00      0.00      7.05     83.28       -0.05
  sub23             GreenRoof            76.19      0.00      0.00      0.00      0.00      7.05     83.28       -0.05
  sub60             GreenRoof            92.91      0.00      0.00      0.00      0.00      7.05    100.01       -0.05
  sub61             GreenRoof            92.91      0.00      0.00      0.00      0.00      7.05    100.01       -0.05
  sub62             GreenRoof            92.91      0.00      0.00      0.00      0.00      7.05    100.01       -0.05
  sub63             GreenRoof            92.91      0.00      0.00      0.00      0.00      7.05    100.01       -0.05
  sub64             GreenRoof            92.91      0.00      0.00      0.00      0.00      7.05    100.01       -0.05
  sub65             GreenRoof            92.91      0.00      0.00      0.00      0.00      7.05    100.01       -0.05
  sub66             GreenRoof            92.91      0.00      0.00      0.00      0.00      7.05    100.01       -0.05
  sub67             GreenRoof            92.91      0.00      0.00      0.00      0.00      7.05    100.01       -0.05
  sub68             GreenRoof            92.91      0.00      0.00      0.00      0.00      7.05    100.01       -0.05
  sub69             GreenRoof            92.91      0.00      0.00      0.00      0.00      7.05    100.01       -0.05
  sub70             GreenRoof            92.91      0.00      0.00      0.00      0.00      7.05    100.01       -0.05
  sub71             GreenRoof            92.91      0.00      0.00      0.00      0.00      7.05    100.01       -0.05
  sub72             GreenRoof            92.91      0.00      0.00      0.00      0.00      7.05    100.01       -0.05
  
  ******************
  Node Depth Summary
  ******************
  
  ---------------------------------------------------------------------------------
                                 Average  Maximum  Maximum  Time of Max    Reported
                                   Depth    Depth      HGL   Occurrence   Max Depth
  Node                 Type       Meters   Meters   Meters  days hr:min      Meters
  ---------------------------------------------------------------------------------
  HS02004478           JUNCTION     0.24     1.60    10.83     0  01:37        1.58
  HS02004479           JUNCTION     0.31     1.68    10.89     0  01:36        1.67
  HS02004480           JUNCTION     0.28     1.66    10.90     0  01:36        1.65
  HS02004770           JUNCTION     0.29     1.42    11.25     0  01:34        1.42
  HS02004777           JUNCTION     0.31     1.48    11.28     0  01:34        1.46
  HS02004785           JUNCTION     0.20     1.49    11.39     0  01:34        1.35
  HS02004788           JUNCTION     0.17     1.42    11.32     0  01:34        1.35
  HS02004792           JUNCTION     0.23     1.60    11.12     0  01:33        1.60
  HS02004799           JUNCTION     0.34     1.76    10.97     0  01:36        1.76
  HS02004802           JUNCTION     0.34     1.81    10.94     0  01:37        1.80
  HS02004807           JUNCTION     0.31     1.92    11.09     0  01:36        1.92
  HS02004817           JUNCTION     0.61     2.38    11.23     0  01:40        2.38
  HS02004824           JUNCTION     0.18     1.95    11.36     0  01:40        1.95
  HS02004830           JUNCTION     0.18     1.91    11.38     0  01:37        1.91
  HS02004837           JUNCTION     0.15     1.87    11.45     0  01:36        1.87
  HS02004842           JUNCTION     0.44     2.22    11.49     0  01:36        2.20
  HS02004848           JUNCTION     0.13     1.98    11.58     0  01:36        1.91
  HS02004852           JUNCTION     0.13     2.03    11.55     0  01:36        1.97
  HS02004856           JUNCTION     0.19     2.06    11.49     0  01:36        2.02
  HS02004862           JUNCTION     0.15     2.00    11.38     0  01:36        2.00
  HS02004870           JUNCTION     0.14     2.10    11.39     0  01:36        1.99
  HS02004876           JUNCTION     0.19     2.26    11.29     0  01:36        2.07
  HS02004881           JUNCTION     0.13     2.15    11.18     0  01:36        1.81
  HS02004901           JUNCTION     0.29     1.42    11.24     0  01:34        1.42
  WS02001211           JUNCTION     0.64     0.86     5.70     0  01:40        0.86
  WS02001212           JUNCTION     0.38     0.62     5.69     0  01:39        0.59
  WS02001213           JUNCTION     0.61     0.92     5.69     0  01:39        0.92
  WS02003059           JUNCTION     0.67     0.99     5.68     0  01:41        0.96
  WS02003060           JUNCTION     0.40     0.71     5.64     0  01:41        0.71
  WS02003066           JUNCTION     0.24     0.46     6.01     0  01:40        0.46
  WS02003067           JUNCTION     0.56     0.92     6.24     0  01:34        0.90
  WS02003069           JUNCTION     0.45     0.79     5.38     0  01:42        0.79
  WS02003072           JUNCTION     0.50     0.82     5.19     0  01:43        0.82
  WS02003073           JUNCTION     0.30     0.52     4.59     0  01:43        0.52
  WS02004138           JUNCTION     0.13     0.14     7.39     0  00:29        0.14
  WS02004139           JUNCTION     0.58     0.78     5.69     0  01:40        0.77
  WS02004401           JUNCTION     0.79     2.32     8.32     0  01:31        1.90
  WS02004402           JUNCTION     0.81     2.33     8.29     0  01:31        1.83
  WS02004403           JUNCTION     0.81     2.29     8.22     0  01:31        1.75
  WS02004404           JUNCTION     0.87     2.27     8.12     0  01:31        1.76
  WS02004405           JUNCTION     0.86     2.14     7.99     0  01:31        1.71
  WS02004406           JUNCTION     0.85     1.74     7.57     0  01:31        1.60
  WS02004407           JUNCTION     0.27     0.96     7.27     0  01:39        0.96
  WS02004409           JUNCTION     0.56     1.41     7.18     0  01:38        1.40
  WS02004410           JUNCTION     0.56     1.31     7.03     0  01:38        1.30
  WS02004411           JUNCTION     0.57     1.22     6.90     0  01:34        1.22
  WS02004412           JUNCTION     0.57     1.25     6.89     0  01:33        1.17
  WS02004413           JUNCTION     0.70     1.20     6.67     0  01:34        1.20
  WS02006109           JUNCTION     1.02     2.64     9.26     0  01:33        2.64
  WS02006110           JUNCTION     0.95     2.47     9.05     0  01:31        2.40
  WS02006111           JUNCTION     0.45     2.00     8.71     0  01:31        1.77
  WS02006112           JUNCTION     1.01     2.68     8.56     0  01:31        2.42
  WS02006113           JUNCTION     0.53     2.46     9.35     0  01:31        1.84
  WS02006115           JUNCTION     0.72     2.37     8.51     0  01:31        2.00
  WS02006116           JUNCTION     0.79     2.34     8.38     0  01:31        1.99
  WS02006228           JUNCTION     1.08     3.03     9.68     0  01:37        3.03
  WS02006229           JUNCTION     1.09     3.23     9.92     0  01:37        3.23
  WS02006230           JUNCTION     1.02     2.65     9.39     0  01:32        2.65
  WS02006231           JUNCTION     0.75     2.19     9.31     0  02:12        2.19
  WS02006232           JUNCTION     0.85     2.18     9.22     0  01:32        2.18
  WS02006234           JUNCTION     0.73     1.96     9.12     0  01:32        1.96
  WS02006235           JUNCTION     0.75     2.00     9.16     0  02:40        1.97
  WS02006238           JUNCTION     0.77     2.06     9.21     0  02:55        1.98
  WS02006239           JUNCTION     0.71     1.94     9.15     0  02:55        1.85
  WS02006240           JUNCTION     0.65     1.75     9.04     0  02:55        1.69
  WS02006242           JUNCTION     0.69     1.55     8.82     0  01:30        1.55
  WS02006243           JUNCTION     0.59     1.48     8.90     0  01:30        1.48
  WS02006245           JUNCTION     0.57     1.56     9.04     0  01:30        1.33
  WS02006247           JUNCTION     0.58     1.47     8.97     0  01:30        1.24
  WS02006248           JUNCTION     0.53     1.10     8.69     0  01:30        1.10
  WS02006249           JUNCTION     0.55     1.09     8.69     0  01:31        1.09
  WS02006251           JUNCTION     0.66     2.21     9.88     0  01:31        2.15
  WS02006252           JUNCTION     0.44     1.50     9.74     0  00:00        1.50
  WS02006253           JUNCTION     0.74     3.31    10.95     0  01:36        3.09
  WS02006256           JUNCTION     1.09     2.35     9.28     0  00:00        2.35
  WS02006280           JUNCTION     0.31     1.74    10.02     0  01:36        1.74
  WS02006284           JUNCTION     0.57     2.08    10.48     0  01:33        1.94
  WS02006287           JUNCTION     0.30     1.75    10.71     0  01:37        1.75
  WSF200               JUNCTION     0.24     0.53     5.77     0  01:42        0.53
  YS02001580           JUNCTION     0.11     1.05     9.59     0  02:06        0.78
  YS02001583           JUNCTION     0.14     1.14     9.64     0  02:06        0.82
  YS02001586           JUNCTION     0.23     1.13     9.30     0  02:06        1.13
  YS02001590           JUNCTION     0.34     1.40     9.26     0  02:09        1.40
  YS02001593           JUNCTION     0.27     1.37     9.23     0  02:09        1.37
  YS02001596           JUNCTION     0.36     1.73     9.15     0  02:09        1.73
  YS02001600           JUNCTION     0.43     1.87     9.00     0  02:28        1.87
  YS02001601           JUNCTION     0.63     2.06     8.90     0  02:05        2.06
  YS02001602           JUNCTION     0.54     1.87     8.77     0  02:09        1.87
  YS02001605           JUNCTION     0.50     1.78     8.68     0  02:29        1.78
  YS02001607           JUNCTION     0.49     1.65     8.49     0  02:29        1.65
  YS02001610           JUNCTION     0.53     1.68     8.48     0  02:12        1.68
  YS02001613           JUNCTION     0.49     1.68     8.52     0  02:18        1.68
  YS02001616           JUNCTION     0.42     1.61     8.52     0  02:18        1.61
  YS02001619           JUNCTION     0.40     1.61     8.54     0  02:18        1.61
  YS02001622           JUNCTION     0.38     1.62     8.52     0  02:18        1.62
  YS02001625           JUNCTION     0.64     1.78     8.38     0  02:12        1.78
  YS02001629           JUNCTION     0.51     1.85     8.40     0  02:14        1.85
  YS02001633           JUNCTION     0.59     2.08     8.53     0  02:18        2.08
  YS02001641           JUNCTION     0.57     2.07     8.51     0  02:18        2.07
  YS02001644           JUNCTION     0.57     1.92     8.35     0  02:14        1.92
  YS02001647           JUNCTION     0.35     1.78     8.39     0  02:28        1.76
  YS02001649           JUNCTION     0.41     2.02     8.41     0  02:28        2.00
  YS02001652           JUNCTION     0.29     1.86     8.46     0  02:24        1.85
  YS02001655           JUNCTION     0.23     1.68     8.53     0  02:24        1.68
  YS02001658           JUNCTION     0.17     1.46     8.60     0  02:24        1.44
  YS02001661           JUNCTION     0.18     1.25     8.66     0  02:24        1.25
  YS02001664           JUNCTION     0.07     0.74     8.67     0  02:24        0.73
  YS02001745           JUNCTION     0.09     0.91     8.43     0  02:24        0.91
  YS02001748           JUNCTION     0.15     1.34     8.41     0  02:24        1.34
  YS02001751           JUNCTION     0.19     1.51     8.39     0  02:24        1.50
  YS02001754           JUNCTION     0.26     1.76     8.36     0  02:24        1.75
  YS02001757           JUNCTION     0.43     2.10     8.36     0  02:28        2.07
  YS02001759           JUNCTION     0.37     2.16     8.52     0  02:28        2.06
  YS02001762           JUNCTION     0.36     2.15     8.55     0  02:28        2.04
  YS02001765           JUNCTION     0.34     2.10     8.55     0  02:28        1.99
  YS02001767           JUNCTION     0.34     2.03     8.52     0  02:28        1.95
  YS02001770           JUNCTION     0.35     1.95     8.44     0  02:14        1.95
  YS02001774           JUNCTION     0.41     2.03     8.45     0  02:28        2.01
  YS02001779           JUNCTION     0.24     1.68     8.37     0  02:14        1.68
  YS02001783           JUNCTION     0.26     1.28     7.42     0  02:28        1.26
  YS02001784           JUNCTION     0.28     1.16     7.22     0  02:28        1.12
  YS02001786           JUNCTION     0.23     0.92     6.95     0  02:28        0.88
  YS02001788           JUNCTION     0.17     0.62     6.60     0  02:23        0.62
  YS02001790           JUNCTION     0.20     0.73     6.37     0  02:20        0.72
  YS02001791           JUNCTION     0.12     0.44     5.91     0  02:24        0.43
  YS02001793           JUNCTION     0.07     0.29     5.12     0  02:16        0.27
  YS02001882           JUNCTION     0.34     1.83     8.55     0  02:28        1.65
  YS02001884           JUNCTION     0.43     1.93     8.55     0  02:28        1.85
  YS02001887           JUNCTION     0.50     1.93     8.46     0  02:28        1.91
  YS02001890           JUNCTION     0.53     1.81     8.32     0  02:14        1.81
  YS02001895           JUNCTION     0.30     1.57     8.32     0  02:18        1.57
  YS02001898           JUNCTION     0.31     1.62     8.35     0  02:28        1.62
  YS02001901           JUNCTION     0.42     1.75     8.36     0  02:18        1.75
  YS02001904           JUNCTION     0.40     1.65     8.28     0  02:18        1.65
  YS02001907           JUNCTION     0.72     1.96     8.25     0  02:14        1.96
  YS02001910           JUNCTION     0.52     2.03     8.54     0  02:18        2.03
  YS02001915           JUNCTION     0.34     1.90     8.62     0  02:18        1.90
  YS02001918           JUNCTION     0.19     1.77     8.83     0  02:15        1.57
  YS02001920           JUNCTION     0.27     1.91     8.92     0  02:15        1.64
  YS02001923           JUNCTION     0.15     1.72     8.98     0  02:15        1.41
  YS02001926           JUNCTION     0.18     1.56     9.01     0  02:15        1.26
  YS02001929           JUNCTION     0.10     1.47     9.16     0  02:15        1.03
  YS02006553           JUNCTION     0.72     2.09     8.37     0  02:18        2.09
  YS02006556           JUNCTION     0.69     2.08     8.39     0  02:18        2.08
  YS02006558           JUNCTION     0.74     2.08     8.35     0  02:28        2.08
  YS02006561           JUNCTION     0.17     0.98     7.64     0  02:28        0.91
  YS02163301           JUNCTION     0.54     1.97     8.49     0  02:18        1.97
  YS02163601           JUNCTION     0.63     2.08     8.48     0  02:14        2.08
  YS02164001           JUNCTION     0.56     2.10     8.56     0  02:18        2.10
  YSB1154              JUNCTION     0.45     1.93    10.99     0  01:36        1.93
  YSB1171              JUNCTION     0.59     1.95    10.85     0  01:35        1.95
  YSB1174              JUNCTION     0.40     1.82    10.93     0  01:36        1.82
  YSB6556              JUNCTION     0.35     1.75    10.92     0  01:36        1.75
  CC-1                 OUTFALL      0.00     0.00     0.00     0  00:00        0.00
  CC-2                 OUTFALL      0.00     0.00     0.00     0  00:00        0.00
  JK-1                 OUTFALL      0.00     0.00     0.00     0  00:00        0.00
  JK-2                 OUTFALL      0.00     0.00     0.00     0  00:00        0.00
  WSC                  OUTFALL      0.30     0.52     1.19     0  01:44        0.52
  CC-storage           STORAGE      0.81     1.75     7.25     0  02:46        1.75
  JK-storage           STORAGE      1.49     4.23     5.03     0  02:16        4.14
  XR-storage           STORAGE      7.88     9.26     7.26     0  08:00        9.26
  
  
  *******************
  Node Inflow Summary
  *******************
  
  -------------------------------------------------------------------------------------------------
                                  Maximum  Maximum                  Lateral       Total        Flow
                                  Lateral    Total  Time of Max      Inflow      Inflow     Balance
                                   Inflow   Inflow   Occurrence      Volume      Volume       Error
  Node                 Type           LPS      LPS  days hr:min    10^6 ltr    10^6 ltr     Percent
  -------------------------------------------------------------------------------------------------
  HS02004478           JUNCTION      0.00  2309.75     0  01:37           0         9.1      -0.012
  HS02004479           JUNCTION      0.00   532.32     0  01:35           0       0.844       0.109
  HS02004480           JUNCTION      0.00  2190.91     0  01:35           0        6.88       0.032
  HS02004770           JUNCTION   1640.57  1640.57     0  01:39        2.97        3.21       0.093
  HS02004777           JUNCTION      0.03   841.95     0  01:33    0.000864        1.99       0.270
  HS02004785           JUNCTION      0.15   865.85     0  01:33     0.00432        1.99       0.010
  HS02004788           JUNCTION    571.15  1028.24     0  01:34        1.07        3.06      -0.005
  HS02004792           JUNCTION   2068.99  2882.58     0  01:39        4.14        7.19       0.003
  HS02004799           JUNCTION    330.04  1772.72     0  01:34       0.506        6.22       0.048
  HS02004802           JUNCTION      0.00  1233.72     0  01:42           0        2.36       0.174
  HS02004807           JUNCTION    429.45  1447.16     0  01:40       0.647        2.45       0.168
  HS02004817           JUNCTION      0.60  1041.02     0  01:40      0.0173        1.86       0.922
  HS02004824           JUNCTION    625.32  1039.62     0  01:40        1.35         2.1       0.024
  HS02004830           JUNCTION      0.15   767.41     0  01:35     0.00432           1       0.120
  HS02004837           JUNCTION    419.21  1009.20     0  01:34       0.843        1.33       0.040
  HS02004842           JUNCTION      0.00  1002.30     0  01:35           0        0.81       1.618
  HS02004848           JUNCTION    575.20  1278.18     0  01:35        1.39        2.01      -0.014
  HS02004852           JUNCTION      0.00  1263.58     0  01:35           0        1.83       0.001
  HS02004856           JUNCTION    169.02  1397.40     0  01:36       0.258        2.09       0.065
  HS02004862           JUNCTION    267.98  1599.99     0  01:36       0.592        2.68      -0.016
  HS02004870           JUNCTION    232.11  1703.36     0  01:36       0.354        3.03      -0.005
  HS02004876           JUNCTION    260.80  1806.95     0  01:36       0.437        3.47       0.014
  HS02004881           JUNCTION    130.07  1921.24     0  01:36       0.192        3.66      -0.041
  HS02004901           JUNCTION    385.87   604.21     0  01:40        0.63       0.984       0.200
  WS02001211           JUNCTION      7.35   308.69     0  01:38       0.212        5.45       0.610
  WS02001212           JUNCTION      0.00   301.92     0  01:35           0        5.42       0.291
  WS02001213           JUNCTION      0.00   289.04     0  01:40           0        5.41       0.328
  WS02003059           JUNCTION      0.00   289.14     0  01:34           0        5.41       0.589
  WS02003060           JUNCTION     16.53  1596.79     0  01:41       0.476        14.8       0.100
  WS02003066           JUNCTION      0.00  1334.05     0  01:38           0           9       0.017
  WS02003067           JUNCTION      0.00  1320.59     0  01:39           0           9       0.050
  WS02003069           JUNCTION      0.32  1553.68     0  01:42     0.00922        14.8       0.106
  WS02003072           JUNCTION      0.00  1544.57     0  01:42           0        14.8       0.143
  WS02003073           JUNCTION      1.82  1542.99     0  01:43      0.0524        14.8       0.147
  WS02004138           JUNCTION      0.00   380.00     0  00:00           0        5.25       0.052
  WS02004139           JUNCTION      0.32   247.25     0  01:37     0.00924        5.26       0.508
  WS02004401           JUNCTION      0.00  1320.42     0  01:39           0        9.11       0.117
  WS02004402           JUNCTION      0.00  1320.42     0  01:39           0         9.1       0.118
  WS02004403           JUNCTION      0.00  1320.36     0  01:39           0        9.09       0.115
  WS02004404           JUNCTION      0.16  1320.52     0  01:38     0.00467        9.08       0.091
  WS02004405           JUNCTION      0.04  1321.26     0  01:38      0.0011        9.08       0.141
  WS02004406           JUNCTION      0.00  1320.40     0  01:38           0        9.06       0.236
  WS02004407           JUNCTION      0.00  1320.40     0  01:38           0        9.04       0.019
  WS02004409           JUNCTION      0.00  1320.61     0  01:40           0        9.04       0.038
  WS02004410           JUNCTION      0.00  1320.47     0  01:39           0        9.04       0.058
  WS02004411           JUNCTION      0.00  1320.48     0  01:39           0        9.03       0.067
  WS02004412           JUNCTION      0.00  1320.73     0  01:40           0        9.03       0.091
  WS02004413           JUNCTION      0.00  1320.57     0  01:39           0        9.02       0.156
  WS02006109           JUNCTION      1.23  1291.40     0  01:37      0.0354        8.89       0.113
  WS02006110           JUNCTION      0.00  1116.97     0  02:01           0        8.59       0.090
  WS02006111           JUNCTION      0.00  1116.68     0  02:01           0        8.58       0.009
  WS02006112           JUNCTION    336.07  1320.06     0  01:39       0.562        9.14       0.198
  WS02006113           JUNCTION      0.00  1117.07     0  02:01           0        8.58       0.031
  WS02006115           JUNCTION      0.00  1319.92     0  01:38           0        9.12       0.078
  WS02006116           JUNCTION      0.00  1320.49     0  01:38           0        9.12       0.043
  WS02006228           JUNCTION      0.00  1290.37     0  01:37           0        8.86       0.056
  WS02006229           JUNCTION      0.00  2319.70     0  01:37           0        11.4       0.067
  WS02006230           JUNCTION     10.28  1029.29     0  01:37       0.296         4.9       0.208
  WS02006231           JUNCTION      0.00   546.90     0  03:40           0        3.58      -0.110
  WS02006232           JUNCTION      0.00   550.38     0  03:40           0        3.56       0.158
  WS02006234           JUNCTION      0.00   548.90     0  03:40           0        3.54      -0.372
  WS02006235           JUNCTION      0.00   540.13     0  03:40           0        3.58       0.343
  WS02006238           JUNCTION      0.00   426.01     0  03:32           0        3.22      -0.090
  WS02006239           JUNCTION      0.00   426.51     0  03:32           0        3.14      -0.110
  WS02006240           JUNCTION      0.00   426.84     0  03:32           0        3.11       0.005
  WS02006242           JUNCTION      0.00   426.93     0  03:32           0        3.11       0.055
  WS02006243           JUNCTION      0.00   426.98     0  03:32           0        2.71      -0.059
  WS02006245           JUNCTION      0.00   426.99     0  03:32           0        2.71       0.448
  WS02006247           JUNCTION      0.00   521.68     0  01:30           0         2.7      -0.048
  WS02006248           JUNCTION      0.00   546.05     0  01:30           0        2.92      -0.097
  WS02006249           JUNCTION      0.00  1386.17     0  01:37           0        6.56       0.130
  WS02006251           JUNCTION      0.08  1669.19     0  01:37     0.00222        6.71      -0.007
  WS02006252           JUNCTION      0.00   400.00     0  00:00           0        3.13      -0.472
  WS02006253           JUNCTION     42.89  1668.06     0  01:37      0.0599        3.77      -0.024
  WS02006256           JUNCTION      0.00   300.00     0  00:00           0        1.19      -2.764
  WS02006280           JUNCTION      0.00  2308.94     0  01:37           0        9.08      -0.017
  WS02006284           JUNCTION      0.10  2308.12     0  01:37     0.00275        9.09       0.023
  WS02006287           JUNCTION      0.00  2310.09     0  01:37           0        9.09       0.020
  WSF200               JUNCTION      0.00  1332.43     0  01:38           0           9       0.010
  YS02001580           JUNCTION      0.00    68.51     0  02:06           0     0.00405      -0.495
  YS02001583           JUNCTION      0.00   101.99     0  02:05           0      0.0156      -3.049
  YS02001586           JUNCTION   1031.48  1031.57     0  02:26        2.04        2.05       0.044
  YS02001590           JUNCTION      0.00   318.89     0  02:28           0        1.44      -0.034
  YS02001593           JUNCTION      0.00   318.91     0  02:28           0        1.44      -0.003
  YS02001596           JUNCTION      0.00   318.14     0  02:29           0        1.44      -0.011
  YS02001600           JUNCTION      0.00   318.01     0  02:40           0        1.44       0.024
  YS02001601           JUNCTION   1669.18  1986.69     0  02:25        2.66        4.11       0.021
  YS02001602           JUNCTION      0.00   490.85     0  02:05           0        2.42       0.015
  YS02001605           JUNCTION      0.00   490.67     0  02:05           0         2.3       0.014
  YS02001607           JUNCTION      0.00   490.04     0  02:05           0         2.3       0.079
  YS02001610           JUNCTION      0.00   950.33     0  02:27           0        2.69       0.084
  YS02001613           JUNCTION      0.00   614.27     0  02:27           0        2.16       0.073
  YS02001616           JUNCTION      0.00   614.35     0  02:27           0        2.16       0.016
  YS02001619           JUNCTION   1767.71  1767.71     0  02:26        3.17        4.93       0.001
  YS02001622           JUNCTION      0.00  1053.72     0  02:26           0        4.52       0.001
  YS02001625           JUNCTION      0.00  1503.34     0  02:27           0        4.84       0.198
  YS02001629           JUNCTION      0.00   935.11     0  02:11           0        3.68       0.012
  YS02001633           JUNCTION   1292.29  1337.22     0  02:11        2.03        5.34       0.060
  YS02001641           JUNCTION      0.00  1335.86     0  02:11           0        4.97       0.053
  YS02001644           JUNCTION   1099.37  1784.50     0  02:25        1.67        6.64       0.049
  YS02001647           JUNCTION      0.00  1678.42     0  02:12           0        5.89       0.004
  YS02001649           JUNCTION      0.00  1900.45     0  02:12           0        7.51       0.003
  YS02001652           JUNCTION      0.00  1129.61     0  02:25           0        1.62      -0.058
  YS02001655           JUNCTION      0.15  1129.04     0  02:25     0.00443        1.62       0.014
  YS02001658           JUNCTION      0.00  1128.90     0  02:25           0        1.62      -0.008
  YS02001661           JUNCTION      0.00  1128.53     0  02:25           0        1.62       0.016
  YS02001664           JUNCTION   1116.73  1116.73     0  02:25        1.62        1.62      -0.008
  YS02001745           JUNCTION    650.89   650.89     0  02:25       0.911       0.911       0.143
  YS02001748           JUNCTION      0.04   650.99     0  02:24      0.0013       0.914      -0.229
  YS02001751           JUNCTION      0.01   651.37     0  02:24    0.000317        0.92       0.029
  YS02001754           JUNCTION      0.26   651.63     0  02:24     0.00749       0.929      -0.126
  YS02001757           JUNCTION      0.00  3141.04     0  02:19           0        11.4       0.028
  YS02001759           JUNCTION    954.65  1352.71     0  02:25        1.34        2.97      -0.005
  YS02001762           JUNCTION      0.00   715.04     0  02:19           0        1.63       0.002
  YS02001765           JUNCTION      0.00   716.88     0  02:19           0        1.63       0.014
  YS02001767           JUNCTION      0.54   718.38     0  02:19      0.0154        1.63       0.007
  YS02001770           JUNCTION   1323.51  1323.51     0  02:25        1.95           2      -0.011
  YS02001774           JUNCTION      0.00   843.71     0  02:25           0       0.394       0.297
  YS02001779           JUNCTION      0.01   843.84     0  02:25    0.000144        0.35      -0.010
  YS02001783           JUNCTION      0.00  1165.87     0  02:23           0        4.27       0.007
  YS02001784           JUNCTION      1.06  1167.00     0  02:24      0.0305         4.3       0.011
  YS02001786           JUNCTION      0.06  1166.94     0  02:23     0.00162         4.3       0.015
  YS02001788           JUNCTION      0.07  1167.41     0  02:22     0.00204         4.3       0.007
  YS02001790           JUNCTION      0.15  1180.64     0  02:24     0.00446         4.3       0.019
  YS02001791           JUNCTION      0.00  1292.78     0  02:20           0         4.3      -0.023
  YS02001793           JUNCTION      0.00  1248.56     0  02:28           0         4.3       0.005
  YS02001882           JUNCTION      0.00    30.84     0  02:11           0       0.013       5.367
  YS02001884           JUNCTION      0.00    45.19     0  02:28           0      0.0488       5.242
  YS02001887           JUNCTION    990.86   991.35     0  02:25        1.37         1.4       0.321
  YS02001890           JUNCTION      0.00   991.25     0  02:25           0        1.36       0.378
  YS02001895           JUNCTION      0.00   520.85     0  02:28           0         1.2       0.139
  YS02001898           JUNCTION      0.00   518.38     0  02:28           0         1.2       0.017
  YS02001901           JUNCTION      0.00   517.93     0  02:26           0         1.2       0.265
  YS02001904           JUNCTION      0.00   517.82     0  02:26           0        1.21       0.234
  YS02001907           JUNCTION      0.00  2342.13     0  02:25           0        3.94       0.462
  YS02001910           JUNCTION      0.00  1688.55     0  02:25           0        2.72       0.262
  YS02001915           JUNCTION   1104.38  1688.03     0  02:25        1.69        2.75       0.057
  YS02001918           JUNCTION      0.00   593.77     0  02:25           0        1.07       0.013
  YS02001920           JUNCTION      2.87   593.50     0  02:25      0.0827        1.06       0.094
  YS02001923           JUNCTION      0.04   590.43     0  02:25     0.00109       0.966      -0.020
  YS02001926           JUNCTION      0.05   589.97     0  02:25      0.0015       0.955       0.029
  YS02001929           JUNCTION    578.79   578.79     0  02:25        0.95        0.95      -0.052
  YS02006553           JUNCTION      0.00   798.74     0  02:38           0        2.45       0.485
  YS02006556           JUNCTION      0.00   799.09     0  02:38           0        2.46       0.338
  YS02006558           JUNCTION   1312.85  1312.85     0  02:25         1.9        4.32       0.085
  YS02006561           JUNCTION      0.00  1166.40     0  02:28           0        4.27      -0.005
  YS02163301           JUNCTION      0.00   933.52     0  02:11           0        3.68       0.038
  YS02163601           JUNCTION      0.11  1336.92     0  02:11     0.00317        4.97       0.095
  YS02164001           JUNCTION      0.00  1337.87     0  02:11           0        4.97       0.042
  YSB1154              JUNCTION    424.68   424.68     0  01:39       0.694       0.695       0.206
  YSB1171              JUNCTION      0.00   983.58     0  01:39           0        1.32       0.481
  YSB1174              JUNCTION    366.78   366.78     0  01:38       0.518       0.519       0.244
  YSB6556              JUNCTION      0.00   424.76     0  01:39           0       0.696       0.179
  CC-1                 OUTFALL       0.00   683.00     0  00:00           0         4.6       0.000
  CC-2                 OUTFALL       0.00   683.00     0  00:00           0        4.66       0.000
  JK-1                 OUTFALL       0.00  1000.00     0  00:00           0        1.56       0.000
  JK-2                 OUTFALL       0.00  1000.00     0  00:00           0        1.68       0.000
  WSC                  OUTFALL       0.00  1541.76     0  01:44           0        14.8       0.000
  CC-storage           STORAGE       0.00  3141.45     0  02:20           0        13.6      -0.223
  JK-storage           STORAGE       0.00  1242.69     0  02:24           0        4.46      -0.375
  XR-storage           STORAGE     200.00   200.00     0  00:00        5.76        6.36       0.001
  
  
  **********************
  Node Surcharge Summary
  **********************
  
  Surcharging occurs when water rises above the top of the highest conduit.
  ---------------------------------------------------------------------
                                               Max. Height   Min. Depth
                                   Hours       Above Crown    Below Rim
  Node                 Type      Surcharged         Meters       Meters
  ---------------------------------------------------------------------
  HS02004478           JUNCTION        0.53          0.677        0.263
  HS02004479           JUNCTION        0.68          0.882        0.168
  HS02004480           JUNCTION        0.73          0.948        0.152
  HS02004770           JUNCTION        0.64          0.720        0.000
  HS02004777           JUNCTION        0.64          0.780        0.000
  HS02004785           JUNCTION        0.59          0.790        0.000
  HS02004788           JUNCTION        0.57          0.720        0.000
  HS02004792           JUNCTION        0.70          0.900        0.000
  HS02004799           JUNCTION        0.81          1.060        0.000
  HS02004802           JUNCTION        0.73          1.102        0.108
  HS02004807           JUNCTION        0.70          1.220        0.000
  HS02004817           JUNCTION        1.33          1.677        0.063
  HS02004824           JUNCTION        0.56          1.253        0.057
  HS02004830           JUNCTION        0.52          1.214        0.116
  HS02004837           JUNCTION        0.46          1.174        0.166
  HS02004842           JUNCTION        0.63          1.520        0.000
  HS02004848           JUNCTION        0.41          1.281        0.089
  HS02004852           JUNCTION        0.45          1.335        0.085
  HS02004856           JUNCTION        0.41          1.293        0.007
  HS02004862           JUNCTION        0.51          1.300        0.000
  HS02004870           JUNCTION        0.54          1.400        0.000
  HS02004876           JUNCTION        0.61          1.560        0.000
  HS02004881           JUNCTION        0.59          1.450        0.000
  HS02004901           JUNCTION        0.65          0.720        0.000
  WS02004401           JUNCTION        1.69          1.318        0.342
  WS02004402           JUNCTION        1.73          1.325        0.415
  WS02004403           JUNCTION        1.74          1.286        0.744
  WS02004404           JUNCTION        1.90          1.267        1.513
  WS02004405           JUNCTION        1.84          1.138        1.662
  WS02004406           JUNCTION        1.81          0.742        1.708
  WS02004409           JUNCTION        1.02          0.407        1.953
  WS02004410           JUNCTION        0.96          0.314        2.226
  WS02004411           JUNCTION        0.93          0.220        2.310
  WS02004412           JUNCTION        0.81          0.248        2.062
  WS02004413           JUNCTION        1.48          0.198        2.002
  WS02006109           JUNCTION        2.38          1.820        0.000
  WS02006110           JUNCTION        2.11          1.560        0.290
  WS02006111           JUNCTION        1.39          1.191        0.679
  WS02006112           JUNCTION        2.29          1.680        0.000
  WS02006113           JUNCTION        1.42          1.656        0.274
  WS02006115           JUNCTION        1.61          1.357        0.893
  WS02006116           JUNCTION        1.62          1.278        1.012
  WS02006228           JUNCTION        2.38          2.200        0.000
  WS02006229           JUNCTION        0.97          1.048        0.022
  WS02006230           JUNCTION        1.97          1.570        0.000
  WS02006231           JUNCTION        2.11          1.479        0.051
  WS02006232           JUNCTION        2.32          1.480        0.000
  WS02006234           JUNCTION        2.25          1.240        0.000
  WS02006235           JUNCTION        2.27          1.290        0.000
  WS02006238           JUNCTION        2.30          1.342        0.088
  WS02006239           JUNCTION        2.26          1.203        0.087
  WS02006240           JUNCTION        2.26          1.041        0.349
  WS02006242           JUNCTION        2.28          0.820        0.000
  WS02006243           JUNCTION        2.25          0.770        0.000
  WS02006245           JUNCTION        2.25          0.850        0.000
  WS02006247           JUNCTION        2.25          0.760        0.000
  WS02006248           JUNCTION        2.24          0.380        0.000
  WS02006249           JUNCTION        2.24          0.390        0.000
  WS02006251           JUNCTION        2.21          1.180        0.000
  WS02006252           JUNCTION        2.35          1.100        0.000
  WS02006253           JUNCTION        2.22          2.266        0.214
  WS02006256           JUNCTION        7.19          2.050        0.000
  WS02006280           JUNCTION        0.82          0.695        0.085
  WS02006284           JUNCTION        0.75          0.800        0.000
  WS02006287           JUNCTION        0.65          0.753        0.137
  YS02001580           JUNCTION        0.72          0.450        0.000
  YS02001583           JUNCTION        0.73          0.500        0.000
  YS02001586           JUNCTION        0.84          0.510        0.000
  YS02001590           JUNCTION        0.92          0.750        0.000
  YS02001593           JUNCTION        0.92          0.746        0.094
  YS02001596           JUNCTION        1.05          1.003        0.067
  YS02001600           JUNCTION        1.21          1.187        0.003
  YS02001601           JUNCTION        1.57          1.440        0.000
  YS02001602           JUNCTION        1.45          1.270        0.000
  YS02001605           JUNCTION        1.40          1.180        0.000
  YS02001607           JUNCTION        0.90          0.645        0.035
  YS02001610           JUNCTION        0.93          0.680        0.000
  YS02001613           JUNCTION        0.90          0.680        0.020
  YS02001616           JUNCTION        0.85          0.610        0.000
  YS02001619           JUNCTION        0.83          0.610        0.000
  YS02001622           JUNCTION        0.83          0.620        0.000
  YS02001625           JUNCTION        1.03          0.780        0.000
  YS02001629           JUNCTION        0.76          0.470        0.000
  YS02001633           JUNCTION        1.06          1.060        0.000
  YS02001641           JUNCTION        0.99          1.073        0.027
  YS02001644           JUNCTION        0.96          0.920        0.000
  YS02001647           JUNCTION        0.70          0.781        0.119
  YS02001649           JUNCTION        0.82          1.023        0.027
  YS02001652           JUNCTION        0.63          0.830        0.300
  YS02001655           JUNCTION        0.48          0.677        0.523
  YS02001658           JUNCTION        0.29          0.456        0.844
  YS02001661           JUNCTION        0.09          0.184        1.206
  YS02001748           JUNCTION        0.22          0.257        0.933
  YS02001751           JUNCTION        0.37          0.511        0.689
  YS02001754           JUNCTION        0.54          0.706        0.444
  YS02001757           JUNCTION        0.88          1.101        0.109
  YS02001759           JUNCTION        0.80          1.158        0.052
  YS02001762           JUNCTION        0.76          1.150        0.000
  YS02001765           JUNCTION        0.72          1.100        0.000
  YS02001767           JUNCTION        0.69          1.030        0.000
  YS02001770           JUNCTION        0.66          0.920        0.000
  YS02001774           JUNCTION        0.74          1.029        0.021
  YS02001779           JUNCTION        0.53          0.680        0.000
  YS02001783           JUNCTION        0.57          0.480        1.120
  YS02001784           JUNCTION        0.54          0.356        1.134
  YS02001786           JUNCTION        0.43          0.116        1.314
  YS02001882           JUNCTION        0.51          0.830        0.000
  YS02001884           JUNCTION        0.52          0.870        0.000
  YS02001887           JUNCTION        0.56          0.876        0.074
  YS02001890           JUNCTION        0.57          0.760        0.000
  YS02001895           JUNCTION        0.50          0.569        0.181
  YS02001898           JUNCTION        0.49          0.588        0.152
  YS02001901           JUNCTION        0.54          0.750        0.120
  YS02001904           JUNCTION        0.53          0.654        0.196
  YS02001907           JUNCTION        0.85          0.950        0.000
  YS02001910           JUNCTION        0.60          1.031        0.069
  YS02001915           JUNCTION        0.51          0.901        0.099
  YS02001918           JUNCTION        0.42          0.768        0.042
  YS02001920           JUNCTION        0.43          0.912        0.228
  YS02001923           JUNCTION        0.13          0.509        0.311
  YS02001926           JUNCTION        0.15          0.561        0.339
  YS02001929           JUNCTION        0.02          0.471        0.309
  YS02006553           JUNCTION        0.88          1.091        0.099
  YS02006556           JUNCTION        0.71          1.035        0.315
  YS02006558           JUNCTION        0.69          0.981        0.419
  YS02006561           JUNCTION        0.38          0.180        0.970
  YS02163301           JUNCTION        1.04          0.970        0.060
  YS02163601           JUNCTION        1.09          1.080        0.000
  YS02164001           JUNCTION        0.99          1.100        0.000
  YSB1154              JUNCTION        0.95          1.229        0.171
  YSB1171              JUNCTION        0.96          1.100        0.000
  YSB1174              JUNCTION        0.84          1.123        0.127
  YSB6556              JUNCTION        0.78          1.047        0.053
  
  
  *********************
  Node Flooding Summary
  *********************
  
  Flooding refers to all water that overflows a node, whether it ponds or not.
  --------------------------------------------------------------------------
                                                             Total   Maximum
                                 Maximum   Time of Max       Flood    Ponded
                        Hours       Rate    Occurrence      Volume     Depth
  Node                 Flooded       LPS   days hr:min    10^6 ltr    Meters
  --------------------------------------------------------------------------
  HS02004770              0.40   1196.91      0  01:39       0.859     0.000
  HS02004777              0.01     56.40      0  01:34       0.001     0.000
  HS02004785              0.01     49.11      0  01:34       0.000     0.000
  HS02004788              0.01    580.10      0  01:34       0.006     0.000
  HS02004792              0.42   1740.42      0  01:39       1.469     0.000
  HS02004799              0.16    281.35      0  01:37       0.074     0.000
  HS02004807              0.11    216.69      0  01:40       0.049     0.000
  HS02004842              0.01     27.51      0  01:36       0.000     0.000
  HS02004862              0.01    214.97      0  01:36       0.005     0.000
  HS02004870              0.01     88.52      0  01:36       0.001     0.000
  HS02004876              0.01     74.00      0  01:36       0.001     0.000
  HS02004881              0.01    764.08      0  01:36       0.004     0.000
  HS02004901              0.48    604.21      0  01:40       0.741     0.000
  WS02006109              0.44    304.70      0  01:39       0.290     0.000
  WS02006112              0.01     14.97      0  01:31       0.000     0.000
  WS02006228              0.01      0.26      0  01:37       0.000     0.000
  WS02006230              0.76    576.47      0  01:37       1.043     0.000
  WS02006232              0.14      1.84      0  01:32       0.000     0.000
  WS02006234              0.80    128.47      0  01:42       0.253     0.000
  WS02006235              0.01     17.83      0  02:55       0.000     0.000
  WS02006242              0.96    137.47      0  01:35       0.393     0.000
  WS02006243              0.01    244.08      0  01:30       0.001     0.000
  WS02006245              0.01     41.19      0  01:30       0.000     0.000
  WS02006247              0.01    383.90      0  01:30       0.001     0.000
  WS02006248              1.32    418.37      0  01:30       1.228     0.000
  WS02006249              2.05   1386.05      0  01:37       4.654     0.000
  WS02006251              0.01    333.95      0  01:31       0.001     0.000
  WS02006252              0.36    347.08      0  01:36       0.210     0.000
  WS02006256              1.10    293.35      0  01:35       0.658     0.000
  WS02006284              0.01     68.46      0  01:33       0.000     0.000
  YS02001580              0.01     47.10      0  02:06       0.000     0.000
  YS02001583              0.01     22.31      0  02:06       0.000     0.000
  YS02001586              0.58    714.04      0  02:26       0.595     0.000
  YS02001590              0.01      0.10      0  02:09       0.000     0.000
  YS02001601              0.76   1588.54      0  02:25       1.683     0.000
  YS02001602              0.61     62.24      0  02:18       0.126     0.000
  YS02001605              0.01      0.25      0  02:39       0.000     0.000
  YS02001610              0.55    950.06      0  02:27       0.925     0.000
  YS02001616              0.03     14.22      0  02:28       0.000     0.000
  YS02001619              0.07    125.59      0  02:25       0.018     0.000
  YS02001622              0.01      0.47      0  02:18       0.000     0.000
  YS02001625              0.52   1503.27      0  02:27       1.519     0.000
  YS02001629              0.18    207.42      0  02:25       0.050     0.000
  YS02001633              0.01      0.34      0  02:18       0.000     0.000
  YS02001644              0.26   1784.47      0  02:25       0.740     0.000
  YS02001762              0.01     20.76      0  02:28       0.000     0.000
  YS02001765              0.01     24.09      0  02:28       0.000     0.000
  YS02001767              0.01     14.92      0  02:28       0.000     0.000
  YS02001770              0.04     95.57      0  02:25       0.008     0.000
  YS02001779              0.22    843.30      0  02:25       0.331     0.000
  YS02001882              0.01     18.02      0  02:28       0.000     0.000
  YS02001884              0.01      9.91      0  02:28       0.000     0.000
  YS02001890              0.21    474.78      0  02:25       0.155     0.000
  YS02001907              0.36   2342.05      0  02:25       1.501     0.000
  YS02163601              0.01     17.49      0  02:28       0.000     0.000
  YS02164001              0.01      0.89      0  02:18       0.000     0.000
  YSB1171                 0.28    983.56      0  01:39       0.585     0.000
  
  
  **********************
  Storage Volume Summary
  **********************
  
  --------------------------------------------------------------------------------------------------
                         Average     Avg  Evap Exfil       Maximum     Max    Time of Max    Maximum
                          Volume    Pcnt  Pcnt  Pcnt        Volume    Pcnt     Occurrence    Outflow
  Storage Unit           1000 m3    Full  Loss  Loss       1000 m3    Full    days hr:min        LPS
  --------------------------------------------------------------------------------------------------
  CC-storage               2.260      35     0     0         4.877      76       0  02:46    1783.53
  JK-storage               0.075      26     0     0         0.213      73       0  02:16    2300.00
  XR-storage               0.945      66     0     0         1.111      77       0  08:00     380.00
  
  
  ***********************
  Outfall Loading Summary
  ***********************
  
  -----------------------------------------------------------
                         Flow       Avg       Max       Total
                         Freq      Flow      Flow      Volume
  Outfall Node           Pcnt       LPS       LPS    10^6 ltr
  -----------------------------------------------------------
  CC-1                  39.51    683.00    683.00       4.603
  CC-2                  34.88    683.00    683.00       4.663
  JK-1                   8.10   1000.00   1000.00       1.563
  JK-2                   9.38   1000.00   1000.00       1.679
  WSC                   99.95    658.72   1541.76      14.804
  -----------------------------------------------------------
  System                38.36   4024.72   1541.76      27.312
  
  
  ********************
  Link Flow Summary
  ********************
  
  -----------------------------------------------------------------------------
                                 Maximum  Time of Max   Maximum    Max/    Max/
                                  |Flow|   Occurrence   |Veloc|    Full    Full
  Link                 Type          LPS  days hr:min     m/sec    Flow   Depth
  -----------------------------------------------------------------------------
  1                    CONDUIT   1541.76     0  01:44      3.72    0.54    0.52
  HS02004478WS02006287 CONDUIT   2310.09     0  01:37      2.72    0.65    1.00
  HS02004479HS02004480 CONDUIT    533.41     0  01:35      0.76    0.52    1.00
  HS02004480HS02004478 CONDUIT   2197.99     0  01:35      3.14    9.26    1.00
  HS02004770HS02004777 CONDUIT    841.92     0  01:33      1.20    1.54    1.00
  HS02004777HS02004785 CONDUIT    865.70     0  01:33      1.34    1.07    1.00
  HS02004785HS02004788 CONDUIT    784.91     0  01:34      1.34    5.92    1.00
  HS02004788HS02004792 CONDUIT    816.25     0  01:38      1.39    0.54    1.00
  HS02004792HS02004799 CONDUIT   1590.68     0  02:03      2.27    0.97    1.00
  HS02004799HS02004480 CONDUIT   1768.72     0  01:34      2.53    2.23    1.00
  HS02004802HS02004478 CONDUIT   1233.97     0  01:42      1.76    1.09    1.00
  HS02004807HS02004802 CONDUIT   1233.72     0  01:42      1.76    2.36    1.00
  HS02004817HS02004807 CONDUIT   1040.82     0  01:40      1.49    0.62    1.00
  HS02004817HS02004824 CONDUIT   1040.42     0  01:40      1.49    0.47    1.00
  HS02004824HS02004830 CONDUIT    767.26     0  01:35      1.11    1.00    1.00
  HS02004830HS02004837 CONDUIT    777.07     0  01:34      1.19    0.77    1.00
  HS02004837HS02004842 CONDUIT   1002.30     0  01:35      1.43    0.60    1.00
  HS02004842HS02004848 CONDUIT   1003.91     0  01:35      1.57    0.58    1.00
  HS02004848HS02004852 CONDUIT   1263.58     0  01:35      1.83    1.42    1.00
  HS02004852HS02004856 CONDUIT   1267.31     0  01:36      1.81    1.45    1.00
  HS02004856HS02004862 CONDUIT   1429.28     0  01:36      2.09    1.43    1.00
  HS02004862HS02004870 CONDUIT   1516.70     0  01:36      2.35    1.64    1.00
  HS02004870HS02004876 CONDUIT   1599.21     0  01:36      2.28    1.06    1.00
  HS02004876HS02004881 CONDUIT   1808.06     0  01:36      2.83   19.23    1.00
  HS02004881HS02006253 CONDUIT   1625.85     0  01:37      2.62    0.32    1.00
  HS02004901HS02004770 CONDUIT    265.79     0  01:57      0.38    1.00    1.00
  WS02001211WS02001212 CONDUIT    276.00     0  01:40      0.54    0.21    0.71
  WS02001212WS02001213 CONDUIT    289.04     0  01:40      1.03    0.45    0.59
  WS02001213WS02003059 CONDUIT    254.35     0  01:42      0.47    0.42    0.92
  WS02003059WS02003060 CONDUIT    279.61     0  01:41      0.67    0.18    0.84
  WS02003060WS02003069 CONDUIT   1553.36     0  01:42      2.11    0.61    0.62
  WS02003066WSF200     CONDUIT   1332.43     0  01:38      3.51    0.23    0.39
  WS02003067WS02003066 CONDUIT   1334.05     0  01:38      2.08    0.43    0.56
  WS02003069WS02003072 CONDUIT   1544.57     0  01:42      1.91    0.74    0.67
  WS02003072WS02003073 CONDUIT   1541.17     0  01:43      2.07    3.33    0.63
  WS02004138WS02004139 CONDUIT    190.90     0  00:29      2.16    0.04    0.43
  WS02004139WS02001211 CONDUIT    301.35     0  01:38      0.54    0.38    0.63
  WS02004401WS02004402 CONDUIT   1320.42     0  01:39      1.68    1.59    1.00
  WS02004402WS02004403 CONDUIT   1320.36     0  01:39      1.68    1.90    1.00
  WS02004403WS02004404 CONDUIT   1320.36     0  01:38      1.68    0.95    1.00
  WS02004404WS02004405 CONDUIT   1321.22     0  01:38      1.68   12.94    1.00
  WS02004405WS02004406 CONDUIT   1320.40     0  01:38      1.68    2.60    1.00
  WS02004406WS02004407 CONDUIT   1320.40     0  01:38      1.98    0.59    0.98
  WS02004407WS02004409 CONDUIT   1320.61     0  01:40      2.08    0.47    0.98
  WS02004409WS02004410 CONDUIT   1320.47     0  01:39      1.68    1.71    1.00
  WS02004410WS02004411 CONDUIT   1320.48     0  01:39      1.68    1.80    1.00
  WS02004411WS02004412 CONDUIT   1320.73     0  01:40      1.68    1.88    1.00
  WS02004412WS02004413 CONDUIT   1320.57     0  01:39      1.68    0.88    1.00
  WS02004413WS02003067 CONDUIT   1320.59     0  01:39      2.04    0.57    0.77
  WS02006109WS02006110 CONDUIT   1116.97     0  02:01      2.22    2.15    1.00
  WS02006110WS02006113 CONDUIT   1117.07     0  02:01      2.22    1.02    1.00
  WS02006111WS02006112 CONDUIT   1116.83     0  02:01      2.22    0.53    1.00
  WS02006112WS02006115 CONDUIT   1319.92     0  01:38      1.68    0.78    1.00
  WS02006113WS02006111 CONDUIT   1116.68     0  02:01      2.72    1.34    1.00
  WS02006115WS02006116 CONDUIT   1320.49     0  01:38      1.68    1.69    1.00
  WS02006116WS02004401 CONDUIT   1320.42     0  01:39      1.68    1.82    1.00
  WS02006228WS02006109 CONDUIT   1290.17     0  01:37      2.57    5.64    1.00
  WS02006229WS02006228 CONDUIT   1290.37     0  01:37      2.57    4.27    1.00
  WS02006230WS02006229 CONDUIT   1019.02     0  01:37      2.65   22.68    1.00
  WS02006231WS02006230 CONDUIT    547.89     0  03:40      1.43    8.31    1.00
  WS02006232WS02006231 CONDUIT    546.90     0  03:40      1.42    1.15    1.00
  WS02006234WS02006232 CONDUIT    550.38     0  03:40      1.43    1.11    1.00
  WS02006235WS02006234 CONDUIT    548.90     0  03:40      1.43    5.79    1.00
  WS02006238WS02006235 CONDUIT    425.12     0  03:42      1.45    0.95    1.00
  WS02006239WS02006238 CONDUIT    426.01     0  03:32      1.12    1.36    1.00
  WS02006240WS02006239 CONDUIT    426.51     0  03:32      1.26    1.34    1.00
  WS02006242WS02006240 CONDUIT    426.84     0  03:32      1.14    1.70    1.00
  WS02006243WS02006242 CONDUIT    426.93     0  03:32      1.34    0.91    1.00
  WS02006245WS02006243 CONDUIT    426.98     0  03:32      1.39    1.26    1.00
  WS02006247WS02006245 CONDUIT    426.99     0  03:32      1.37    3.39    1.00
  WS02006248WS02006247 CONDUIT    426.99     0  03:32      1.38    0.93    1.00
  WS02006249WS02006248 CONDUIT    430.61     0  03:37      1.38    2.36    1.00
  WS02006251WS02006249 CONDUIT   1368.63     0  01:37      3.56    3.95    1.00
  WS02006252WS02006251 CONDUIT    406.27     0  02:19     25.48    1.49    1.00
  WS02006253WS02006251 CONDUIT   1669.12     0  01:37      4.34    5.00    1.00
  WS02006256WS02006235 CONDUIT    288.93     0  00:00      4.23    3.06    1.00
  WS02006280WS02006229 CONDUIT   2319.70     0  01:37      4.70    0.49    1.00
  WS02006284WS02006280 CONDUIT   2308.94     0  01:37      3.09    0.97    1.00
  WS02006287WS02006284 CONDUIT   2308.03     0  01:37      2.94    1.07    1.00
  WSF200WS02003060     CONDUIT   1343.09     0  01:38      2.68    0.30    0.52
  YS02001580YS02001583 CONDUIT     68.51     0  02:06      0.47    0.27    1.00
  YS02001583YS02001586 CONDUIT    101.99     0  02:05      0.44    0.15    1.00
  YS02001586YS02001590 CONDUIT    318.89     0  02:28      1.25    0.56    1.00
  YS02001590YS02001593 CONDUIT    318.91     0  02:28      1.13    2.00    1.00
  YS02001593YS02001596 CONDUIT    318.14     0  02:29      1.75    0.50    1.00
  YS02001596YS02001600 CONDUIT    318.01     0  02:40      1.28    0.62    1.00
  YS02001600YS02001601 CONDUIT    318.09     0  02:28      1.12    0.55    1.00
  YS02001601YS02001602 CONDUIT    490.85     0  02:05      1.74    1.77    1.00
  YS02001602YS02001605 CONDUIT    490.67     0  02:05      1.74   10.38    1.00
  YS02001605YS02001607 CONDUIT    490.04     0  02:05      1.73    2.69    1.00
  YS02001607YS02001610 CONDUIT    490.38     0  02:05      0.62    0.47    1.00
  YS02001610YS02001613 CONDUIT    614.33     0  02:27      0.78    0.71    1.00
  YS02001613YS02001616 CONDUIT    614.27     0  02:27      0.78    0.53    1.00
  YS02001616YS02001619 CONDUIT    614.35     0  02:27      0.78    1.07    1.00
  YS02001619YS02001622 CONDUIT   1053.72     0  02:26      1.34    1.55    1.00
  YS02001622YS02001625 CONDUIT   1053.46     0  02:26      1.34    0.56    1.00
  YS02001625YS02001629 CONDUIT    935.11     0  02:11      1.19    0.44    1.00
  YS02001629YS02163301 CONDUIT    933.52     0  02:11      1.19    1.15    1.00
  YS02001633YS02163601 CONDUIT   1336.81     0  02:11      1.70    1.40    1.00
  YS02001641YS02001644 CONDUIT   1335.83     0  02:11      1.70    4.32    1.00
  YS02001644YS02001647 CONDUIT   1678.42     0  02:12      2.17    0.99    1.00
  YS02001647YS02001649 CONDUIT   1677.38     0  02:12      2.28    0.89    1.00
  YS02001649YS02001757 CONDUIT   1896.89     0  02:12      2.46    1.15    1.00
  YS02001652YS02001649 CONDUIT   1129.52     0  02:25      1.44    0.56    1.00
  YS02001655YS02001652 CONDUIT   1129.61     0  02:25      1.44    0.55    1.00
  YS02001658YS02001655 CONDUIT   1128.88     0  02:25      1.81    0.48    1.00
  YS02001661YS02001658 CONDUIT   1128.90     0  02:25      2.20    0.44    1.00
  YS02001664YS02001661 CONDUIT   1128.53     0  02:25      2.14    0.35    0.87
  YS02001745YS02001748 CONDUIT    650.95     0  02:24      1.99    0.25    0.96
  YS02001748YS02001751 CONDUIT    651.36     0  02:24      1.55    0.33    1.00
  YS02001751YS02001754 CONDUIT    651.37     0  02:24      1.33    0.31    1.00
  YS02001754YS02001757 CONDUIT    651.89     0  02:24      0.83    0.26    1.00
  YS02001757CaochengTiaoxuchi CONDUIT   3141.45     0  02:20      4.00    1.36    1.00
  YS02001759YS02001757 CONDUIT   1353.06     0  02:25      1.72    0.96    1.00
  YS02001762YS02001759 CONDUIT    719.65     0  02:19      0.92    0.83    1.00
  YS02001765YS02001762 CONDUIT    715.04     0  02:19      0.91    0.67    1.00
  YS02001767YS02001765 CONDUIT    716.88     0  02:19      0.91    0.90    1.00
  YS02001770YS02001767 CONDUIT    717.85     0  02:19      0.91    2.84    1.00
  YS02001774YS02001770 CONDUIT    843.71     0  02:25      1.07    0.54    1.00
  YS02001779YS02001774 CONDUIT    843.83     0  02:25      1.07    0.43    1.00
  YS02001783YS02001784 CONDUIT   1165.94     0  02:24      2.32    1.61    1.00
  YS02001784YS02001785 CONDUIT   1166.89     0  02:23      2.32    2.72    1.00
  YS02001786YS02001788 CONDUIT   1167.34     0  02:22      2.48    2.25    0.89
  YS02001788YS02001790 CONDUIT   1180.49     0  02:24      2.72    0.87    0.84
  YS02001790YS02001791 CONDUIT   1292.78     0  02:20      3.43    1.41    0.71
  YS02001791YS02001793 CONDUIT   1248.56     0  02:28      6.78    0.54    0.44
  YS02001793JiankangQianchi CONDUIT   1242.69     0  02:24      2.50    0.10    0.65
  YS02001882YS02001884 CONDUIT     30.84     0  02:11      0.15    0.04    1.00
  YS02001884YS02001887 CONDUIT     45.19     0  02:28      0.11    0.06    1.00
  YS02001887YS02001890 CONDUIT    991.25     0  02:25      1.26    1.70    1.00
  YS02001890YS02001895 CONDUIT    520.85     0  02:28      0.66    0.24    1.00
  YS02001895YS02001898 CONDUIT    518.38     0  02:28      0.66    0.90    1.00
  YS02001898YS02001901 CONDUIT    517.93     0  02:26      0.66    0.33    1.00
  YS02001901YS02001904 CONDUIT    517.82     0  02:26      0.66    0.80    1.00
  YS02001904YS02001907 CONDUIT    519.07     0  02:28      0.66    0.18    1.00
  YS02001907YS02006553 CONDUIT    798.74     0  02:38      0.89    0.94    1.00
  YS02001910YS02001907 CONDUIT   1688.42     0  02:25      2.15    0.95    1.00
  YS02001915YS02001910 CONDUIT   1688.55     0  02:25      2.15    0.84    1.00
  YS02001918YS02001915 CONDUIT    594.15     0  02:25      0.76    0.33    1.00
  YS02001920YS02001918 CONDUIT    593.77     0  02:25      0.76    0.57    1.00
  YS02001923YS02001920 CONDUIT    590.63     0  02:25      0.75    0.27    1.00
  YS02001926YS02001923 CONDUIT    590.39     0  02:25      0.95    0.84    1.00
  YS02001929YS02001926 CONDUIT    589.92     0  02:25      1.08    0.28    1.00
  YS02006553YS02006556 CONDUIT    799.09     0  02:38      1.02    0.68    1.00
  YS02006556YS02006558 CONDUIT    800.93     0  02:38      1.02    0.63    1.00
  YS02006558YS02006561 CONDUIT   1166.40     0  02:28      4.13    2.58    1.00
  YS02006561YS02001783 CONDUIT   1165.87     0  02:23      2.32    0.60    1.00
  YS02163301YS02001633 CONDUIT    933.32     0  02:11      1.19    0.88    1.00
  YS02163601YS02164001 CONDUIT   1337.87     0  02:11      1.70    1.19    1.00
  YS02164001YS02001641 CONDUIT   1335.86     0  02:11      1.70    1.82    1.00
  YSB1154YSB6556       CONDUIT    424.76     0  01:39      1.10    0.76    1.00
  YSB1171HS02004479    CONDUIT    532.32     0  01:35      1.06    0.35    1.00
  YSB1174YSB1171       CONDUIT    366.92     0  01:38      0.95    0.56    1.00
  YSB6556YSB1171       CONDUIT    425.22     0  01:39      1.10    0.44    1.00
  CC-R1                PUMP       683.00     0  00:00              1.00
  CC-R2                PUMP       683.00     0  00:00              1.00
  CC-S1                PUMP       200.00     0  00:00              1.00
  CC-S2                PUMP       200.00     0  00:00              1.00
  JK-R1                PUMP      1000.00     0  00:00              1.00
  JK-R2                PUMP      1000.00     0  00:00              1.00
  JK-S                 PUMP       300.00     0  00:00              1.00
  XR-1                 PUMP        95.00     0  00:00              1.00
  XR-2                 PUMP        95.00     0  00:00              1.00
  XR-3                 PUMP        95.00     0  00:00              1.00
  XR-4                 PUMP        95.00     0  00:00              1.00
  
  
  ***************************
  Flow Classification Summary
  ***************************
  
  -------------------------------------------------------------------------------------
                      Adjusted    ---------- Fraction of Time in Flow Class ---------- 
                       /Actual         Up    Down  Sub   Sup   Up    Down  Norm  Inlet 
  Conduit               Length    Dry  Dry   Dry   Crit  Crit  Crit  Crit  Ltd   Ctrl  
  -------------------------------------------------------------------------------------
  1                       1.00   0.00  0.00  0.00  0.00  1.00  0.00  0.00  0.35  0.00
  HS02004478WS02006287    1.00   0.10  0.00  0.00  0.63  0.27  0.00  0.00  0.60  0.00
  HS02004479HS02004480    1.00   0.05  0.00  0.00  0.95  0.00  0.00  0.00  0.11  0.00
  HS02004480HS02004478    1.00   0.09  0.00  0.00  0.57  0.00  0.00  0.34  0.00  0.00
  HS02004770HS02004777    1.00   0.00  0.09  0.00  0.91  0.00  0.00  0.00  0.02  0.00
  HS02004777HS02004785    1.00   0.00  0.00  0.00  1.00  0.00  0.00  0.00  0.11  0.00
  HS02004785HS02004788    1.00   0.00  0.00  0.00  1.00  0.00  0.00  0.00  0.00  0.00
  HS02004788HS02004792    1.00   0.00  0.00  0.00  0.99  0.01  0.00  0.00  0.89  0.00
  HS02004792HS02004799    1.00   0.00  0.00  0.00  0.99  0.01  0.00  0.00  0.84  0.00
  HS02004799HS02004480    1.00   0.00  0.04  0.00  0.90  0.00  0.06  0.00  0.00  0.00
  HS02004802HS02004478    1.00   0.09  0.00  0.00  0.91  0.00  0.00  0.00  0.02  0.00
  HS02004807HS02004802    1.00   0.09  0.00  0.00  0.90  0.00  0.00  0.01  0.00  0.00
  HS02004817HS02004807    1.00   0.00  0.09  0.00  0.91  0.00  0.00  0.00  0.01  0.00
  HS02004817HS02004824    1.00   0.00  0.00  0.00  1.00  0.00  0.00  0.00  0.80  0.00
  HS02004824HS02004830    1.00   0.00  0.00  0.00  1.00  0.00  0.00  0.00  0.00  0.00
  HS02004830HS02004837    1.00   0.00  0.00  0.00  1.00  0.00  0.00  0.00  0.87  0.00
  HS02004837HS02004842    1.00   0.00  0.00  0.00  1.00  0.00  0.00  0.00  0.11  0.00
  HS02004842HS02004848    1.00   0.00  0.09  0.00  0.91  0.00  0.00  0.00  0.57  0.00
  HS02004848HS02004852    1.00   0.09  0.00  0.00  0.91  0.00  0.00  0.00  0.70  0.00
  HS02004852HS02004856    1.00   0.09  0.00  0.00  0.91  0.00  0.00  0.00  0.66  0.00
  HS02004856HS02004862    1.00   0.00  0.10  0.00  0.90  0.00  0.00  0.00  0.74  0.00
  HS02004862HS02004870    1.00   0.00  0.00  0.00  1.00  0.00  0.00  0.00  0.03  0.00
  HS02004870HS02004876    1.00   0.00  0.00  0.00  0.98  0.02  0.00  0.00  0.85  0.00
  HS02004876HS02004881    1.00   0.02  0.00  0.00  0.77  0.21  0.00  0.00  0.00  0.00
  HS02004881HS02006253    1.00   0.03  0.02  0.00  0.52  0.03  0.00  0.40  0.24  0.00
  HS02004901HS02004770    1.00   0.09  0.00  0.00  0.91  0.00  0.00  0.00  0.00  0.00
  WS02001211WS02001212    1.00   0.00  0.03  0.00  0.97  0.00  0.00  0.00  0.00  0.00
  WS02001212WS02001213    1.00   0.03  0.00  0.00  0.55  0.00  0.42  0.00  0.00  0.00
  WS02001213WS02003059    1.00   0.00  0.00  0.00  0.99  0.00  0.00  0.00  0.00  0.00
  WS02003059WS02003060    1.00   0.00  0.00  0.00  1.00  0.00  0.00  0.00  0.03  0.00
  WS02003060WS02003069    1.00   0.00  0.00  0.00  0.98  0.02  0.00  0.00  0.52  0.00
  WS02003066WSF200        1.00   0.07  0.00  0.00  0.00  0.93  0.00  0.00  0.61  0.00
  WS02003067WS02003066    1.00   0.07  0.01  0.00  0.93  0.00  0.00  0.00  0.00  0.00
  WS02003069WS02003072    1.00   0.00  0.00  0.00  1.00  0.00  0.00  0.00  0.63  0.00
  WS02003072WS02003073    1.00   0.00  0.00  0.00  0.00  0.00  0.00  1.00  0.00  0.00
  WS02004138WS02004139    1.00   0.00  0.00  0.00  0.96  0.02  0.00  0.02  0.98  0.00
  WS02004139WS02001211    1.00   0.00  0.00  0.00  0.99  0.00  0.00  0.00  0.00  0.00
  WS02004401WS02004402    1.00   0.03  0.00  0.00  0.97  0.00  0.00  0.00  0.00  0.00
  WS02004402WS02004403    1.00   0.04  0.00  0.00  0.96  0.00  0.00  0.00  0.00  0.00
  WS02004403WS02004404    1.00   0.00  0.04  0.00  0.96  0.00  0.00  0.00  0.00  0.00
  WS02004404WS02004405    1.00   0.00  0.00  0.00  1.00  0.00  0.00  0.00  0.00  0.00
  WS02004405WS02004406    1.00   0.00  0.00  0.00  1.00  0.00  0.00  0.00  0.00  0.00
  WS02004406WS02004407    1.00   0.00  0.05  0.00  0.95  0.00  0.00  0.00  0.00  0.00
  WS02004407WS02004409    1.00   0.05  0.00  0.00  0.94  0.00  0.00  0.00  0.81  0.00
  WS02004409WS02004410    1.00   0.05  0.00  0.00  0.95  0.00  0.00  0.00  0.01  0.00
  WS02004410WS02004411    1.00   0.05  0.00  0.00  0.95  0.00  0.00  0.00  0.00  0.00
  WS02004411WS02004412    1.00   0.05  0.00  0.00  0.95  0.00  0.00  0.00  0.00  0.00
  WS02004412WS02004413    1.00   0.05  0.00  0.00  0.94  0.00  0.00  0.00  0.01  0.00
  WS02004413WS02003067    1.00   0.06  0.01  0.00  0.00  0.00  0.93  0.00  0.00  0.00
  WS02006109WS02006110    1.00   0.00  0.01  0.00  0.98  0.00  0.01  0.00  0.00  0.00
  WS02006110WS02006113    1.00   0.01  0.01  0.00  0.98  0.00  0.00  0.00  0.00  0.00
  WS02006111WS02006112    1.00   0.02  0.00  0.00  0.97  0.01  0.00  0.00  0.75  0.00
  WS02006112WS02006115    1.00   0.02  0.01  0.00  0.96  0.00  0.01  0.00  0.00  0.00
  WS02006113WS02006111    1.00   0.02  0.00  0.00  0.29  0.70  0.00  0.00  0.06  0.00
  WS02006115WS02006116    1.00   0.03  0.00  0.00  0.96  0.00  0.00  0.01  0.00  0.00
  WS02006116WS02004401    1.00   0.03  0.00  0.00  0.97  0.00  0.00  0.00  0.00  0.00
  WS02006228WS02006109    1.00   0.00  0.00  0.00  1.00  0.00  0.00  0.00  0.00  0.00
  WS02006229WS02006228    1.00   0.00  0.00  0.00  0.99  0.00  0.00  0.01  0.00  0.00
  WS02006230WS02006229    1.00   0.00  0.00  0.00  0.99  0.00  0.00  0.01  0.04  0.00
  WS02006231WS02006230    1.00   0.00  0.00  0.00  0.48  0.00  0.52  0.00  0.00  0.00
  WS02006232WS02006231    1.00   0.00  0.00  0.00  0.99  0.00  0.00  0.00  0.00  0.00
[...]
  WS02006284WS02006280    1.00   0.09  0.00  0.00  0.14  0.02  0.00  0.74  0.00  0.00
  WS02006287WS02006284    1.00   0.08  0.02  0.00  0.46  0.44  0.00  0.00  0.65  0.00
  WSF200WS02003060        1.00   0.00  0.07  0.00  0.47  0.46  0.00  0.00  0.57  0.00
  YS02001580YS02001583    1.00   0.23  0.45  0.00  0.32  0.00  0.00  0.00  0.63  0.00
  YS02001583YS02001586    1.00   0.29  0.26  0.00  0.44  0.00  0.00  0.00  0.63  0.00
  YS02001586YS02001590    1.00   0.09  0.00  0.00  0.65  0.02  0.00  0.24  0.35  0.00
  YS02001590YS02001593    1.00   0.09  0.00  0.00  0.20  0.00  0.71  0.00  0.00  0.00
  YS02001593YS02001596    1.00   0.09  0.00  0.00  0.23  0.01  0.00  0.67  0.02  0.00
  YS02001596YS02001600    1.00   0.09  0.00  0.00  0.31  0.02  0.00  0.58  0.05  0.00
  YS02001600YS02001601    1.00   0.09  0.00  0.00  0.91  0.00  0.00  0.00  0.59  0.00
  YS02001601YS02001602    1.00   0.09  0.00  0.00  0.91  0.00  0.00  0.00  0.00  0.00
  YS02001602YS02001605    1.00   0.09  0.00  0.00  0.91  0.00  0.00  0.00  0.00  0.00
  YS02001605YS02001607    1.00   0.09  0.00  0.00  0.91  0.00  0.00  0.00  0.00  0.00
  YS02001607YS02001610    1.00   0.09  0.00  0.00  0.91  0.00  0.00  0.00  0.01  0.00
  YS02001610YS02001613    1.00   0.09  0.00  0.00  0.91  0.00  0.00  0.00  0.00  0.00
  YS02001613YS02001616    1.00   0.09  0.00  0.00  0.91  0.00  0.00  0.00  0.00  0.00
  YS02001616YS02001619    1.00   0.09  0.00  0.00  0.91  0.00  0.00  0.00  0.00  0.00
  YS02001619YS02001622    1.00   0.09  0.00  0.00  0.91  0.00  0.00  0.00  0.32  0.00
  YS02001622YS02001625    1.00   0.09  0.00  0.00  0.91  0.00  0.00  0.00  0.03  0.00
  YS02001625YS02001629    1.00   0.09  0.02  0.00  0.26  0.00  0.63  0.00  0.00  0.00
  YS02001629YS02163301    1.00   0.10  0.00  0.00  0.90  0.00  0.00  0.00  0.00  0.00
  YS02001633YS02163601    1.00   0.00  0.01  0.00  0.99  0.00  0.00  0.00  0.14  0.00
  YS02001641YS02001644    1.00   0.00  0.00  0.00  1.00  0.00  0.00  0.00  0.00  0.00
  YS02001644YS02001647    1.00   0.00  0.10  0.00  0.90  0.00  0.00  0.00  0.00  0.00
  YS02001647YS02001649    1.00   0.00  0.10  0.00  0.57  0.33  0.00  0.00  0.57  0.00
  YS02001649YS02001757    1.00   0.00  0.00  0.00  0.65  0.35  0.00  0.00  0.47  0.00
  YS02001652YS02001649    1.00   0.00  0.00  0.00  0.97  0.03  0.00  0.00  0.72  0.00
  YS02001655YS02001652    1.00   0.00  0.00  0.00  0.32  0.01  0.00  0.67  0.06  0.00
  YS02001658YS02001655    1.00   0.00  0.09  0.00  0.66  0.25  0.00  0.00  0.68  0.00
  YS02001661YS02001658    1.00   0.09  0.00  0.00  0.43  0.48  0.00  0.00  0.69  0.00
  YS02001664YS02001661    1.00   0.09  0.00  0.00  0.77  0.15  0.00  0.00  0.85  0.00
  YS02001745YS02001748    1.00   0.00  0.00  0.00  0.16  0.01  0.00  0.83  0.04  0.00
  YS02001748YS02001751    1.00   0.00  0.00  0.00  0.79  0.21  0.00  0.00  0.73  0.00
  YS02001751YS02001754    1.00   0.00  0.00  0.00  0.29  0.01  0.00  0.70  0.04  0.00
  YS02001754YS02001757    1.00   0.00  0.00  0.00  1.00  0.00  0.00  0.00  0.80  0.00
  YS02001757CaochengTiaoxuchi    1.00   0.00  0.00  0.00  0.93  0.07  0.00  0.00  0.74  0.00
  YS02001759YS02001757    1.00   0.00  0.00  0.00  1.00  0.00  0.00  0.00  0.61  0.00
  YS02001762YS02001759    1.00   0.00  0.00  0.00  1.00  0.00  0.00  0.00  0.03  0.00
  YS02001765YS02001762    1.00   0.00  0.00  0.00  1.00  0.00  0.00  0.00  0.69  0.00
  YS02001767YS02001765    1.00   0.00  0.00  0.00  1.00  0.00  0.00  0.00  0.00  0.00
  YS02001770YS02001767    1.00   0.00  0.00  0.00  1.00  0.00  0.00  0.00  0.00  0.00
  YS02001774YS02001770    1.00   0.00  0.09  0.00  0.76  0.00  0.15  0.00  0.02  0.00
  YS02001779YS02001774    1.00   0.00  0.00  0.00  1.00  0.00  0.00  0.00  0.74  0.00
  YS02001783YS02001784    1.00   0.00  0.12  0.00  0.88  0.00  0.00  0.00  0.56  0.00
  YS02001784YS02001785    1.00   0.00  0.00  0.00  1.00  0.00  0.00  0.00  0.16  0.00
  YS02001786YS02001788    1.00   0.00  0.00  0.00  0.70  0.30  0.00  0.00  0.00  0.00
  YS02001788YS02001790    1.00   0.00  0.00  0.00  0.17  0.83  0.00  0.00  0.79  0.00
  YS02001790YS02001791    1.00   0.00  0.00  0.00  0.01  0.99  0.00  0.00  0.16  0.00
  YS02001791YS02001793    1.00   0.00  0.00  0.00  0.00  1.00  0.00  0.00  0.01  0.00
  YS02001793JiankangQianchi    1.00   0.00  0.00  0.00  0.96  0.04  0.00  0.00  0.96  0.00
  YS02001882YS02001884    1.00   0.10  0.00  0.00  0.90  0.00  0.00  0.00  0.00  0.00
  YS02001884YS02001887    1.00   0.06  0.02  0.00  0.92  0.00  0.00  0.00  0.00  0.00
  YS02001887YS02001890    1.00   0.00  0.00  0.00  0.96  0.00  0.04  0.00  0.00  0.00
  YS02001890YS02001895    1.00   0.00  0.10  0.00  0.90  0.00  0.00  0.00  0.00  0.00
  YS02001895YS02001898    1.00   0.10  0.00  0.00  0.87  0.00  0.02  0.00  0.00  0.00
  YS02001898YS02001901    1.00   0.10  0.00  0.00  0.90  0.00  0.00  0.00  0.01  0.00
  YS02001901YS02001904    1.00   0.10  0.00  0.00  0.90  0.00  0.00  0.00  0.00  0.00
  YS02001904YS02001907    1.00   0.00  0.10  0.00  0.90  0.00  0.00  0.00  0.00  0.00
  YS02001907YS02006553    1.00   0.00  0.03  0.00  0.97  0.00  0.00  0.00  0.00  0.00
  YS02001910YS02001907    1.00   0.00  0.00  0.00  0.96  0.00  0.00  0.04  0.12  0.00
  YS02001915YS02001910    1.00   0.00  0.00  0.00  0.97  0.03  0.00  0.00  0.13  0.00
  YS02001918YS02001915    1.00   0.00  0.00  0.00  0.97  0.03  0.00  0.00  0.73  0.00
  YS02001920YS02001918    1.00   0.00  0.00  0.00  1.00  0.00  0.00  0.00  0.00  0.00
  YS02001923YS02001920    1.00   0.00  0.00  0.00  1.00  0.00  0.00  0.00  0.92  0.00
  YS02001926YS02001923    1.00   0.00  0.07  0.00  0.10  0.00  0.84  0.00  0.00  0.00
  YS02001929YS02001926    1.00   0.00  0.09  0.00  0.91  0.00  0.00  0.00  0.82  0.00
  YS02006553YS02006556    1.00   0.01  0.00  0.00  0.99  0.00  0.00  0.00  0.03  0.00
  YS02006556YS02006558    1.00   0.00  0.00  0.00  1.00  0.00  0.00  0.00  0.00  0.00
  YS02006558YS02006561    1.00   0.11  0.00  0.00  0.09  0.79  0.00  0.00  0.17  0.00
  YS02006561YS02001783    1.00   0.12  0.00  0.00  0.14  0.74  0.00  0.00  0.68  0.00
  YS02163301YS02001633    1.00   0.00  0.10  0.00  0.90  0.00  0.00  0.00  0.00  0.00
  YS02163601YS02164001    1.00   0.00  0.07  0.00  0.93  0.00  0.00  0.00  0.00  0.00
  YS02164001YS02001641    1.00   0.01  0.06  0.00  0.93  0.00  0.00  0.00  0.05  0.00
  YSB1154YSB6556          1.00   0.09  0.00  0.00  0.91  0.00  0.00  0.00  0.02  0.00
  YSB1171HS02004479       1.00   0.05  0.00  0.00  0.94  0.00  0.00  0.01  0.10  0.00
  YSB1174YSB1171          1.00   0.05  0.02  0.00  0.93  0.00  0.00  0.00  0.00  0.00
  YSB6556YSB1171          1.00   0.05  0.04  0.00  0.91  0.00  0.00  0.00  0.00  0.00
  
  
  *************************
  Conduit Surcharge Summary
  *************************
  
  ----------------------------------------------------------------------------
                                                           Hours        Hours 
                         --------- Hours Full --------   Above Full   Capacity
  Conduit                Both Ends  Upstream  Dnstream   Normal Flow   Limited
  ----------------------------------------------------------------------------
  HS02004478WS02006287        0.53      0.53      0.72      0.01         0.01
  HS02004479HS02004480        0.73      0.73      0.75      0.01         0.01
  HS02004480HS02004478        0.66      0.73      0.66      1.76         0.66
  HS02004770HS02004777        0.64      0.64      0.64      0.12         0.09
  HS02004777HS02004785        0.59      0.59      0.64      0.01         0.01
  HS02004785HS02004788        0.57      0.59      0.57      1.59         0.54
  HS02004788HS02004792        0.57      0.57      0.70      0.01         0.01
  HS02004792HS02004799        0.70      0.70      0.81      0.01         0.01
  HS02004799HS02004480        0.73      0.73      0.81      0.93         0.01
  HS02004802HS02004478        0.66      0.66      0.74      0.11         0.01
  HS02004807HS02004802        0.70      0.70      0.73      0.27         0.28
  HS02004817HS02004807        0.70      0.70      1.33      0.01         0.01
  HS02004817HS02004824        0.56      0.56      1.33      0.01         0.01
  HS02004824HS02004830        0.52      0.52      0.56      0.01         0.01
  HS02004830HS02004837        0.46      0.46      0.52      0.01         0.01
  HS02004837HS02004842        0.46      0.46      0.63      0.01         0.01
  HS02004842HS02004848        0.41      0.41      0.63      0.01         0.01
  HS02004848HS02004852        0.41      0.41      0.45      0.03         0.01
  HS02004852HS02004856        0.45      0.45      0.50      0.02         0.01
  HS02004856HS02004862        0.40      0.40      0.51      0.02         0.01
  HS02004862HS02004870        0.51      0.51      0.54      0.24         0.22
  HS02004870HS02004876        0.54      0.54      0.61      0.01         0.01
  HS02004876HS02004881        0.59      0.61      0.59      1.61         0.59
  HS02004881HS02006253        0.59      0.59      2.22      0.01         0.01
  HS02004901HS02004770        0.64      0.64      0.65      0.01         0.01
  WS02003072WS02003073        0.01      0.01      0.01      2.71         0.01
  WS02004401WS02004402        1.69      1.69      1.73      1.58         1.54
  WS02004402WS02004403        1.73      1.73      1.74      1.68         1.67
  WS02004403WS02004404        1.73      1.73      1.90      0.01         0.02
  WS02004404WS02004405        1.84      1.90      1.84      3.07         1.84
  WS02004405WS02004406        1.81      1.84      1.81      2.25         1.81
  WS02004406WS02004407        0.01      0.01      1.81      0.01         0.01
  WS02004407WS02004409        0.01      0.01      1.02      0.01         0.01
  WS02004409WS02004410        0.96      1.02      0.96      1.61         0.96
  WS02004410WS02004411        0.93      0.96      0.93      1.65         0.93
  WS02004411WS02004412        0.81      0.93      0.81      1.68         0.81
  WS02004412WS02004413        0.81      0.81      1.48      0.01         0.01
  WS02004413WS02003067        0.01      0.01      1.48      0.01         0.01
  WS02006109WS02006110        2.11      2.11      2.39      2.15         0.01
  WS02006110WS02006113        1.42      1.42      2.39      0.29         0.01
  WS02006111WS02006112        1.39      1.39      2.48      0.01         0.01
  WS02006112WS02006115        1.61      1.61      2.29      0.01         0.01
  WS02006113WS02006111        1.40      1.42      1.40      1.58         1.40
  WS02006115WS02006116        1.61      1.61      1.62      1.61         1.58
  WS02006116WS02004401        1.68      1.68      1.69      1.67         1.64
  WS02006228WS02006109        2.38      2.39      2.38      2.73         2.38
  WS02006229WS02006228        2.38      2.38      2.38      2.47         2.37
  WS02006230WS02006229        2.41      2.43      2.41      3.37         1.29
  WS02006231WS02006230        1.97      1.97      2.14      3.02         1.07
  WS02006232WS02006231        2.11      2.11      2.32      0.06         0.11
  WS02006234WS02006232        2.27      2.27      2.32      0.05         0.06
  WS02006235WS02006234        2.24      2.25      2.27      2.73         1.04
  WS02006238WS02006235        2.28      2.28      2.30      0.01         0.29
  WS02006239WS02006238        2.29      2.30      2.30      1.54         0.62
  WS02006240WS02006239        2.25      2.27      2.26      1.50         0.59
  WS02006242WS02006240        2.26      2.26      2.29      1.75         0.97
  WS02006243WS02006242        2.26      2.26      2.28      0.01         0.03
  WS02006245WS02006243        2.25      2.25      2.25      0.61         0.58
  WS02006247WS02006245        2.25      2.25      2.25      2.38         0.97
  WS02006248WS02006247        2.25      2.25      2.25      0.01         0.04
  WS02006249WS02006248        2.24      2.24      2.24      1.11         0.01
  WS02006251WS02006249        2.24      2.24      2.24      2.27         2.21
  WS02006252WS02006251        2.32      2.32      2.34      1.79         0.02
  WS02006253WS02006251        2.23      2.24      2.23      0.84         0.01
  WS02006256WS02006235        2.95      3.00      7.08      0.71         0.01
  WS02006280WS02006229        0.83      0.83      0.97      0.01         0.01
  WS02006284WS02006280        0.75      0.75      0.82      0.01         0.01
  WS02006287WS02006284        0.65      0.65      0.76      0.31         0.31
  YS02001580YS02001583        0.72      0.72      0.76      0.01         0.01
  YS02001583YS02001586        0.73      0.73      0.84      0.01         0.01
  YS02001586YS02001590        0.84      0.84      0.92      0.01         0.01
  YS02001590YS02001593        0.92      0.92      0.94      0.93         0.01
  YS02001593YS02001596        0.94      0.94      1.05      0.01         0.01
  YS02001596YS02001600        1.11      1.11      1.21      0.01         0.01
  YS02001600YS02001601        1.28      1.28      1.57      0.01         0.01
  YS02001601YS02001602        1.45      1.45      1.61      1.23         0.01
  YS02001602YS02001605        1.40      1.40      1.45      2.37         0.01
  YS02001605YS02001607        1.35      1.40      1.35      1.51         1.34
  YS02001607YS02001610        0.90      0.90      0.93      0.01         0.01
  YS02001610YS02001613        0.90      0.90      0.93      0.01         0.01
  YS02001613YS02001616        0.85      0.85      0.90      0.01         0.01
  YS02001616YS02001619        0.83      0.83      0.85      0.06         0.08
  YS02001619YS02001622        0.83      0.83      0.83      0.92         0.80
  YS02001622YS02001625        0.83      0.83      1.03      0.01         0.01
  YS02001625YS02001629        0.76      0.76      1.03      0.01         0.01
  YS02001629YS02163301        1.03      1.03      1.04      0.15         0.21
  YS02001633YS02163601        1.06      1.06      1.09      0.38         0.36
  YS02001641YS02001644        0.96      0.99      0.96      1.65         0.94
  YS02001644YS02001647        0.70      0.70      0.96      0.01         0.01
  YS02001647YS02001649        0.70      0.70      0.82      0.01         0.01
  YS02001649YS02001757        0.82      0.82      0.88      0.17         0.09
  YS02001652YS02001649        0.65      0.65      0.82      0.01         0.01
  YS02001655YS02001652        0.48      0.48      0.63      0.01         0.01
  YS02001658YS02001655        0.29      0.29      0.48      0.01         0.01
  YS02001661YS02001658        0.09      0.09      0.29      0.01         0.01
  YS02001664YS02001661        0.01      0.01      0.13      0.01         0.01
  YS02001745YS02001748        0.01      0.01      0.22      0.01         0.01
  YS02001748YS02001751        0.26      0.26      0.37      0.01         0.01
  YS02001751YS02001754        0.37      0.37      0.54      0.01         0.01
  YS02001754YS02001757        0.59      0.59      0.88      0.01         0.01
  YS02001757CaochengTiaoxuchi        0.88      0.88      1.38      0.45         0.40
  YS02001759YS02001757        0.80      0.80      0.88      0.01         0.01
  YS02001762YS02001759        0.76      0.76      0.80      0.01         0.02
  YS02001765YS02001762        0.72      0.72      0.76      0.01         0.01
  YS02001767YS02001765        0.69      0.69      0.72      0.01         0.03
  YS02001770YS02001767        0.68      0.68      0.69      0.58         0.46
  YS02001774YS02001770        0.66      0.66      0.74      0.01         0.01
  YS02001779YS02001774        0.53      0.53      0.74      0.01         0.01
  YS02001783YS02001784        0.54      0.57      0.54      0.75         0.54
  YS02001784YS02001785        0.43      0.54      0.43      1.04         0.43
  YS02001786YS02001788        0.01      0.43      0.01      0.90         0.01
  YS02001790YS02001791        0.01      0.01      0.01      0.53         0.01
  YS02001793JiankangQianchi        0.01      0.01      6.05      0.01         0.01
  YS02001882YS02001884        0.51      0.51      0.52      0.01         0.01
  YS02001884YS02001887        0.55      0.55      0.56      0.01         0.01
  YS02001887YS02001890        0.57      0.57      0.59      0.15         0.01
  YS02001890YS02001895        0.50      0.50      0.60      0.01         0.01
  YS02001895YS02001898        0.49      0.49      0.50      0.01         0.01
  YS02001898YS02001901        0.50      0.50      0.54      0.01         0.01
  YS02001901YS02001904        0.53      0.53      0.54      0.01         0.01
  YS02001904YS02001907        0.53      0.53      0.88      0.01         0.01
  YS02001907YS02006553        1.05      1.05      1.14      0.01         0.01
  YS02001910YS02001907        0.60      0.60      0.85      0.01         0.01
  YS02001915YS02001910        0.51      0.51      0.60      0.01         0.01
  YS02001918YS02001915        0.42      0.42      0.51      0.01         0.01
  YS02001920YS02001918        0.42      0.42      0.43      0.01         0.01
  YS02001923YS02001920        0.37      0.37      0.43      0.01         0.01
  YS02001926YS02001923        0.13      0.13      0.15      0.01         0.01
  YS02001929YS02001926        0.02      0.02      0.15      0.01         0.01
  YS02006553YS02006556        0.71      0.71      0.88      0.01         0.01
  YS02006556YS02006558        0.79      0.79      0.89      0.01         0.01
  YS02006558YS02006561        0.45      0.69      0.45      0.98         0.45
  YS02006561YS02001783        0.38      0.38      0.57      0.01         0.01
  YS02163301YS02001633        1.04      1.04      1.08      0.01         0.01
  YS02163601YS02164001        0.99      0.99      1.09      0.14         0.01
  YS02164001YS02001641        0.99      0.99      0.99      0.75         0.67
  YSB1154YSB6556              0.78      0.78      0.95      0.01         0.01
  YSB1171HS02004479           0.68      0.68      0.96      0.01         0.01
  YSB1174YSB1171              0.84      0.84      1.24      0.01         0.01
  YSB6556YSB1171              0.78      0.78      1.43      0.01         0.01
  
  
  ***************
  Pumping Summary
  ***************
  
  ---------------------------------------------------------------------------------------------------------
                                                  Min       Avg       Max     Total     Power    % Time Off
                        Percent   Number of      Flow      Flow      Flow    Volume     Usage    Pump Curve
  Pump                 Utilized   Start-Ups       LPS       LPS       LPS  10^6 ltr     Kw-hr    Low   High
  ---------------------------------------------------------------------------------------------------------
  CC-R1                   23.45          22      0.00    683.00    683.00     4.613     84.80    0.0   29.7
  CC-R2                   23.75          27      0.00    683.00    683.00     4.671     84.94    0.0   41.7
  CC-S1                   26.47          24      0.00    200.00    200.00     1.524      9.40    0.0    0.0
  CC-S2                   25.66          24      0.00    200.00    200.00     1.478      9.61    0.0    0.0
  JK-R1                    5.42          10      0.00   1000.00   1000.00     1.562     16.65    0.0    0.0
  JK-R2                    5.83          15      0.00   1000.00   1000.00     1.678     15.36    0.0    0.0
  JK-S                    13.69          51      0.00    300.00    300.00     1.183     20.41    0.0    0.0
  XR-1                    97.91           2      0.00     95.00     95.00     2.679      9.61    0.0    0.0
  XR-2                    93.94           2      0.00     95.00     95.00     2.570      8.77    0.0    0.0
  XR-3                     0.00           1      0.00     95.00     95.00     0.000      0.00    0.0    0.0
  XR-4                     0.00           1      0.00     95.00     95.00     0.000      0.00    0.0    0.0
  

  Analysis begun on:  Fri Jun 16 11:08:34 2023
  Analysis ended on:  Fri Jun 16 11:08:45 2023
  Total elapsed time: 00:00:11