
  OWA STORM WATER MANAGEMENT MODEL - VERSION v5.1.14 (OWA 2022-07-31)
  --------------------------------------------------------------

  WARNING 04: minimum elevation drop used for Conduit WS02004404WS02004405
  WARNING 03: negative offset ignored for Link YS02001904YS02001907
  
  *********************************************************
  NOTE: The summary statistics displayed in this report are
  based on results found at every computational time step,  
  not just on results from each reporting time step.
  *********************************************************
  
  ****************
  Analysis Options
  ****************
  Flow Units ............... LPS
  Process Models:
    Rainfall/Runoff ........ YES
    RDII ................... NO
    Snowmelt ............... NO
    Groundwater ............ NO
    Flow Routing ........... YES
    Ponding Allowed ........ NO
    Water Quality .......... NO
  Infiltration Method ...... HORTON
  Flow Routing Method ...... DYNWAVE
  Surcharge Method ......... EXTRAN
  Starting Date ............ 08/28/2015 08:00:00
  Ending Date .............. 08/28/2015 16:00:00
  Antecedent Dry Days ...... 8.0
  Report Time Step ......... 00:01:00
  Wet Time Step ............ 00:01:00
  Dry Time Step ............ 00:01:00
  Routing Time Step ........ 30.00 sec
  Variable Time Step ....... YES
  Maximum Trials ........... 8
  Number of Threads ........ 2
  Head Tolerance ........... 0.001500 m
  
  
  **************************        Volume         Depth
  Runoff Quantity Continuity     hectare-m            mm
  **************************     ---------       -------
  Initial LID Storage ......         0.072         1.184
  Total Precipitation ......         4.472        73.829
  Evaporation Loss .........         0.000         0.000
  Infiltration Loss ........         0.211         3.476
  Surface Runoff ...........         3.462        57.149
  Final Storage ............         0.873        14.409
  Continuity Error (%) .....        -0.027
  
  
  **************************        Volume        Volume
  Flow Routing Continuity        hectare-m      10^6 ltr
  **************************     ---------     ---------
  Dry Weather Inflow .......         0.630         6.296
  Wet Weather Inflow .......         3.462        34.620
  Groundwater Inflow .......         0.000         0.000
  RDII Inflow ..............         0.000         0.000
  External Inflow ..........         0.105         1.045
  External Outflow .........         2.539        25.390
  Flooding Loss ............         1.647        16.470
  Evaporation Loss .........         0.000         0.000
  Exfiltration Loss ........         0.000         0.000
  Initial Stored Volume ....         0.303         3.031
  Final Stored Volume ......         0.322         3.219
  Continuity Error (%) .....        -0.193
  
  
  *************************
  Highest Continuity Errors
  *************************
  Node YS02001884 (5.07%)
  Node YS02001583 (-4.67%)
  Node WS02006256 (-2.68%)
  Node HS02004842 (1.78%)
  
  
  ***************************
  Time-Step Critical Elements
  ***************************
  Link WS02006280WS02006229 (41.00%)
  Link WS02006252WS02006251 (32.80%)
  Link YS02001791YS02001793 (5.69%)
  Link WS02006238WS02006235 (5.53%)
  Link WS02003066WSF200 (3.00%)
  
  
  ********************************
  Highest Flow Instability Indexes
  ********************************
  Link WS02006113WS02006111 (26)
  Link WS02006256WS02006235 (20)
  Link WS02004404WS02004405 (18)
  Link WS02006238WS02006235 (18)
  Link WS02006229WS02006228 (17)
  
  
  *************************
  Routing Time Step Summary
  *************************
  Minimum Time Step           :     0.00 sec
  Average Time Step           :     2.10 sec
  Maximum Time Step           :     6.46 sec
  Percent in Steady State     :    -0.00
  Average Iterations per Step :     3.38
  Percent Not Converging      :    13.74
  
  
  ***************************
  Subcatchment Runoff Summary
  ***************************
  
  ------------------------------------------------------------------------------------------------------------------------------
                            Total      Total      Total      Total     Imperv       Perv      Total       Total     Peak  Runoff
                           Precip      Runon       Evap      Infil     Runoff     Runoff     Runoff      Runoff   Runoff   Coeff
  Subcatchment                 mm         mm         mm         mm         mm         mm         mm    10^6 ltr      LPS
  ------------------------------------------------------------------------------------------------------------------------------
  sub0                      73.83       0.00       0.00       1.01      67.42       4.16      71.58        0.06    46.90   0.970
  sub1                      73.83       0.00       0.00       1.54      57.78       5.74      63.52        0.42   301.86   0.860
  sub2                      73.83       0.00       0.00       7.14      42.24      18.16      60.40        0.56   333.82   0.818
  sub3                      73.83       0.00       0.00       7.67      41.83      17.40      59.24        1.33   722.61   0.802
  sub4                      73.83       0.00       0.00       1.70      56.93       5.49      62.41        1.30   756.90   0.845
  sub5                      73.83       0.00       0.00       0.87      55.90       3.42      59.32        0.67   486.27   0.803
  sub7                      73.83       0.00       0.00       1.03      51.08       4.12      55.20        0.19   145.48   0.748
  sub8                      73.83       0.00       0.00       1.01      49.65       3.99      53.64        0.34   262.91   0.727
  sub9                      73.83       0.00       0.00       0.98      48.13       3.87      52.00        0.25   191.61   0.704
  sub10                     73.83       0.00       0.00       0.98      54.15       3.82      57.97        0.64   471.00   0.785
  sub11                     73.83       0.00       0.00       0.89      50.33       3.57      53.89        0.63   483.48   0.730
  sub12                     73.83       0.00       0.00       1.56      51.16       6.23      57.39        0.50   404.93   0.777
  sub14                     73.83       0.00       0.00       0.97      47.66       3.83      51.50        0.49   374.48   0.697
  sub15                     73.83       0.00       0.00       4.48      42.85      14.23      57.08        0.98   691.50   0.773
  sub16                     73.83       0.00       0.00       4.73      41.79      16.24      58.03        0.61   462.45   0.786
  sub17                     73.83       0.00       0.00       5.08      46.13      17.04      63.17        0.54   403.82   0.856
  sub22                     73.83       0.00       0.00       7.99      40.00      22.76      62.76        3.96  2622.14   0.850
  sub23                     73.83       0.00       0.00       5.98      41.19      18.67      59.86        2.86  2023.06   0.811
  sub60                     73.83       0.00       0.00       1.40      49.22       5.44      54.66        0.72   558.98   0.740
  sub61                     73.83       0.00       0.00       2.15      49.18       8.11      57.29        1.05   818.55   0.776
  sub62                     73.83       0.00       0.00       0.95      52.43       3.70      56.13        1.54  1126.71   0.760
  sub63                     73.83       0.00       0.00       3.97      42.12      13.56      55.68        1.26   947.70   0.754
  sub64                     73.83       0.00       0.00       1.90      47.96       6.73      54.69        1.31   928.30   0.741
  sub65                     73.83       0.00       0.00       1.74      51.77       6.14      57.91        1.59  1085.67   0.784
  sub66                     73.83       0.00       0.00       4.70      40.74      12.28      53.02        2.47  1448.16   0.718
  sub67                     73.83       0.00       0.00       0.94      53.75       3.82      57.57        1.07   855.84   0.780
  sub68                     73.83       0.00       0.00       1.65      47.47       6.23      53.69        1.48  1121.11   0.727
  sub69                     73.83       0.00       0.00       1.53      49.65       7.25      56.90        2.11  1402.14   0.771
  sub70                     73.83       0.00       0.00       5.23      39.78      15.32      55.10        1.59   837.96   0.746
  sub71                     73.83       0.00       0.00       0.88      47.63       3.35      50.97        1.33   933.71   0.690
  sub72                     73.83       0.00       0.00       0.84      51.45       3.11      54.56        0.75   483.55   0.739
  

  ***********************
  LID Performance Summary
  ***********************

  --------------------------------------------------------------------------------------------------------------------
                                         Total      Evap     Infil   Surface    Drain    Initial     Final  Continuity
                                        Inflow      Loss      Loss   Outflow   Outflow   Storage   Storage       Error
  Subcatchment      LID Control             mm        mm        mm        mm        mm        mm        mm           %
  --------------------------------------------------------------------------------------------------------------------
  sub1              GreenRoof            73.83      0.00      0.00      0.00      0.00      7.05     80.91       -0.03
  sub2              GreenRoof            73.83      0.00      0.00      0.00      0.00      7.05     80.91       -0.03
  sub3              GreenRoof            73.83      0.00      0.00      0.00      0.00      7.05     80.91       -0.03
  sub4              GreenRoof            73.83      0.00      0.00      0.00      0.00      7.05     80.91       -0.03
  sub5              GreenRoof            73.83      0.00      0.00      0.00      0.00      7.05     80.91       -0.03
  sub7              GreenRoof            73.83      0.00      0.00      0.00      0.00      7.05     80.91       -0.03
  sub8              GreenRoof            73.83      0.00      0.00      0.00      0.00      7.05     80.91       -0.03
  sub9              GreenRoof            73.83      0.00      0.00      0.00      0.00      7.05     80.91       -0.03
  sub10             GreenRoof            73.83      0.00      0.00      0.00      0.00      7.05     80.91       -0.03
  sub11             GreenRoof            73.83      0.00      0.00      0.00      0.00      7.05     80.91       -0.03
  sub12             GreenRoof            73.83      0.00      0.00      0.00      0.00      7.05     80.91       -0.03
  sub14             GreenRoof            73.83      0.00      0.00      0.00      0.00      7.05     80.91       -0.03
  sub15             GreenRoof            73.83      0.00      0.00      0.00      0.00      7.05     80.91       -0.03
  sub16             GreenRoof            73.83      0.00      0.00      0.00      0.00      7.05     80.91       -0.03
  sub17             GreenRoof            73.83      0.00      0.00      0.00      0.00      7.05     80.91       -0.03
  sub22             GreenRoof            73.83      0.00      0.00      0.00      0.00      7.05     80.91       -0.03
  sub23             GreenRoof            73.83      0.00      0.00      0.00      0.00      7.05     80.91       -0.03
  sub60             GreenRoof            73.83      0.00      0.00      0.00      0.00      7.05     80.91       -0.03
  sub61             GreenRoof            73.83      0.00      0.00      0.00      0.00      7.05     80.91       -0.03
  sub62             GreenRoof            73.83      0.00      0.00      0.00      0.00      7.05     80.91       -0.03
  sub63             GreenRoof            73.83      0.00      0.00      0.00      0.00      7.05     80.91       -0.03
  sub64             GreenRoof            73.83      0.00      0.00      0.00      0.00      7.05     80.91       -0.03
  sub65             GreenRoof            73.83      0.00      0.00      0.00      0.00      7.05     80.91       -0.03
  sub66             GreenRoof            73.83      0.00      0.00      0.00      0.00      7.05     80.91       -0.03
  sub67             GreenRoof            73.83      0.00      0.00      0.00      0.00      7.05     80.91       -0.03
  sub68             GreenRoof            73.83      0.00      0.00      0.00      0.00      7.05     80.91       -0.03
  sub69             GreenRoof            73.83      0.00      0.00      0.00      0.00      7.05     80.91       -0.03
  sub70             GreenRoof            73.83      0.00      0.00      0.00      0.00      7.05     80.91       -0.03
  sub71             GreenRoof            73.83      0.00      0.00      0.00      0.00      7.05     80.91       -0.03
  sub72             GreenRoof            73.83      0.00      0.00      0.00      0.00      7.05     80.91       -0.03
  
  ******************
  Node Depth Summary
  ******************
  
  ---------------------------------------------------------------------------------
                                 Average  Maximum  Maximum  Time of Max    Reported
                                   Depth    Depth      HGL   Occurrence   Max Depth
  Node                 Type       Meters   Meters   Meters  days hr:min      Meters
  ---------------------------------------------------------------------------------
  HS02004478           JUNCTION     0.22     1.59    10.82     0  02:23        1.58
  HS02004479           JUNCTION     0.30     1.70    10.90     0  02:16        1.67
  HS02004480           JUNCTION     0.27     1.67    10.91     0  02:16        1.63
  HS02004770           JUNCTION     0.26     1.42    11.25     0  02:12        1.42
  HS02004777           JUNCTION     0.29     1.48    11.28     0  02:12        1.46
  HS02004785           JUNCTION     0.19     1.46    11.36     0  02:12        1.35
  HS02004788           JUNCTION     0.16     1.42    11.32     0  02:12        1.36
  HS02004792           JUNCTION     0.21     1.60    11.12     0  02:12        1.60
  HS02004799           JUNCTION     0.33     1.76    10.97     0  02:12        1.76
  HS02004802           JUNCTION     0.32     1.80    10.93     0  02:22        1.80
  HS02004807           JUNCTION     0.29     1.92    11.09     0  02:22        1.92
  HS02004817           JUNCTION     0.57     2.42    11.27     0  02:30        2.40
  HS02004824           JUNCTION     0.17     2.01    11.41     0  02:23        2.01
  HS02004830           JUNCTION     0.17     1.99    11.46     0  02:27        1.99
  HS02004837           JUNCTION     0.15     1.95    11.53     0  02:16        1.91
  HS02004842           JUNCTION     0.42     2.22    11.49     0  02:16        2.22
  HS02004848           JUNCTION     0.13     1.98    11.58     0  02:30        1.90
  HS02004852           JUNCTION     0.13     2.03    11.55     0  02:30        1.96
  HS02004856           JUNCTION     0.19     2.04    11.47     0  02:27        2.02
  HS02004862           JUNCTION     0.15     2.00    11.38     0  02:16        2.00
  HS02004870           JUNCTION     0.14     2.01    11.29     0  02:24        2.00
  HS02004876           JUNCTION     0.19     2.10    11.13     0  02:25        2.10
  HS02004881           JUNCTION     0.13     1.85    10.87     0  02:24        1.84
  HS02004901           JUNCTION     0.27     1.42    11.24     0  02:12        1.42
  WS02001211           JUNCTION     0.61     0.82     5.66     0  02:28        0.82
  WS02001212           JUNCTION     0.36     0.58     5.65     0  02:28        0.58
  WS02001213           JUNCTION     0.56     0.88     5.64     0  02:27        0.88
  WS02003059           JUNCTION     0.63     0.95     5.63     0  02:26        0.95
  WS02003060           JUNCTION     0.36     0.70     5.63     0  02:26        0.70
  WS02003066           JUNCTION     0.22     0.46     6.02     0  02:25        0.46
  WS02003067           JUNCTION     0.51     0.90     6.22     0  02:25        0.90
  WS02003069           JUNCTION     0.41     0.79     5.37     0  02:26        0.79
  WS02003072           JUNCTION     0.46     0.82     5.19     0  02:27        0.82
  WS02003073           JUNCTION     0.28     0.52     4.59     0  02:27        0.52
  WS02004138           JUNCTION     0.13     0.14     7.39     0  00:32        0.14
  WS02004139           JUNCTION     0.55     0.75     5.66     0  02:28        0.75
  WS02004401           JUNCTION     0.74     2.00     8.00     0  02:30        1.99
  WS02004402           JUNCTION     0.76     1.94     7.90     0  02:30        1.91
  WS02004403           JUNCTION     0.76     1.86     7.79     0  02:30        1.83
  WS02004404           JUNCTION     0.82     1.86     7.71     0  02:30        1.85
  WS02004405           JUNCTION     0.81     1.79     7.64     0  02:25        1.78
  WS02004406           JUNCTION     0.80     1.79     7.62     0  02:30        1.79
  WS02004407           JUNCTION     0.26     1.01     7.32     0  02:24        1.01
  WS02004409           JUNCTION     0.51     1.44     7.21     0  02:25        1.42
  WS02004410           JUNCTION     0.51     1.33     7.05     0  02:25        1.33
  WS02004411           JUNCTION     0.52     1.24     6.92     0  02:25        1.23
  WS02004412           JUNCTION     0.52     1.13     6.77     0  02:25        1.12
  WS02004413           JUNCTION     0.64     1.16     6.63     0  02:25        1.15
  WS02006109           JUNCTION     0.97     2.64     9.26     0  02:12        2.64
  WS02006110           JUNCTION     0.91     2.43     9.02     0  02:24        2.43
  WS02006111           JUNCTION     0.42     1.86     8.56     0  02:25        1.85
  WS02006112           JUNCTION     0.96     2.52     8.40     0  02:25        2.52
  WS02006113           JUNCTION     0.50     1.90     8.79     0  02:25        1.90
  WS02006115           JUNCTION     0.67     2.10     8.24     0  02:25        2.09
  WS02006116           JUNCTION     0.74     2.08     8.12     0  02:25        2.08
  WS02006228           JUNCTION     1.02     3.03     9.68     0  02:30        3.03
  WS02006229           JUNCTION     1.03     3.25     9.94     0  02:30        3.22
  WS02006230           JUNCTION     0.96     2.65     9.39     0  02:08        2.65
  WS02006231           JUNCTION     0.69     2.19     9.31     0  02:30        2.19
  WS02006232           JUNCTION     0.78     2.18     9.22     0  02:08        2.18
  WS02006234           JUNCTION     0.67     1.96     9.12     0  02:05        1.96
  WS02006235           JUNCTION     0.68     2.00     9.16     0  02:30        1.95
  WS02006238           JUNCTION     0.70     2.05     9.20     0  02:30        1.95
  WS02006239           JUNCTION     0.64     1.93     9.14     0  02:30        1.83
  WS02006240           JUNCTION     0.58     1.73     9.02     0  02:30        1.71
  WS02006242           JUNCTION     0.62     1.55     8.82     0  01:50        1.55
  WS02006243           JUNCTION     0.51     1.48     8.90     0  01:50        1.38
  WS02006245           JUNCTION     0.49     1.56     9.04     0  01:51        1.29
  WS02006247           JUNCTION     0.50     1.47     8.97     0  01:50        1.25
  WS02006248           JUNCTION     0.44     1.10     8.69     0  01:50        1.10
  WS02006249           JUNCTION     0.46     1.09     8.69     0  01:51        1.09
  WS02006251           JUNCTION     0.55     2.21     9.88     0  02:30        2.21
  WS02006252           JUNCTION     0.38     1.50     9.74     0  00:00        1.50
  WS02006253           JUNCTION     0.63     3.12    10.77     0  02:24        3.11
  WS02006256           JUNCTION     0.99     2.35     9.28     0  00:00        2.35
  WS02006280           JUNCTION     0.29     1.83    10.10     0  02:30        1.83
  WS02006284           JUNCTION     0.54     2.08    10.48     0  02:30        2.08
  WS02006287           JUNCTION     0.29     1.83    10.79     0  02:30        1.83
  WSF200               JUNCTION     0.21     0.53     5.76     0  02:25        0.53
  YS02001580           JUNCTION     0.07     1.05     9.59     0  02:12        0.77
  YS02001583           JUNCTION     0.10     1.02     9.52     0  02:12        0.82
  YS02001586           JUNCTION     0.17     1.13     9.30     0  02:12        1.13
  YS02001590           JUNCTION     0.27     1.40     9.26     0  02:12        1.40
  YS02001593           JUNCTION     0.20     1.34     9.20     0  02:12        1.28
  YS02001596           JUNCTION     0.27     1.76     9.17     0  02:30        1.76
  YS02001600           JUNCTION     0.33     1.87     9.00     0  02:12        1.86
  YS02001601           JUNCTION     0.52     2.06     8.90     0  02:11        2.06
  YS02001602           JUNCTION     0.44     1.87     8.77     0  02:12        1.87
  YS02001605           JUNCTION     0.40     1.78     8.68     0  02:27        1.78
  YS02001607           JUNCTION     0.39     1.65     8.49     0  02:33        1.64
  YS02001610           JUNCTION     0.43     1.68     8.48     0  02:16        1.68
  YS02001613           JUNCTION     0.40     1.70     8.54     0  02:30        1.70
  YS02001616           JUNCTION     0.33     1.61     8.52     0  02:30        1.60
  YS02001619           JUNCTION     0.31     1.61     8.54     0  02:30        1.60
  YS02001622           JUNCTION     0.30     1.59     8.50     0  02:30        1.57
  YS02001625           JUNCTION     0.54     1.78     8.38     0  02:17        1.78
  YS02001629           JUNCTION     0.41     1.85     8.40     0  02:19        1.85
  YS02001633           JUNCTION     0.49     2.05     8.51     0  02:30        1.98
  YS02001641           JUNCTION     0.46     2.05     8.49     0  02:30        1.94
  YS02001644           JUNCTION     0.46     1.92     8.35     0  02:20        1.92
  YS02001647           JUNCTION     0.26     1.75     8.36     0  02:24        1.74
  YS02001649           JUNCTION     0.29     1.98     8.37     0  02:24        1.96
  YS02001652           JUNCTION     0.18     1.83     8.43     0  02:24        1.81
  YS02001655           JUNCTION     0.14     1.63     8.48     0  02:24        1.62
  YS02001658           JUNCTION     0.10     1.39     8.54     0  02:24        1.39
  YS02001661           JUNCTION     0.13     1.20     8.61     0  02:24        1.20
  YS02001664           JUNCTION     0.05     0.61     8.53     0  02:24        0.59
  YS02001745           JUNCTION     0.06     0.82     8.34     0  02:24        0.80
  YS02001748           JUNCTION     0.09     1.39     8.47     0  02:21        1.24
  YS02001751           JUNCTION     0.11     1.50     8.38     0  02:19        1.41
  YS02001754           JUNCTION     0.15     1.68     8.29     0  02:24        1.66
  YS02001757           JUNCTION     0.29     2.00     8.26     0  02:24        1.99
  YS02001759           JUNCTION     0.24     2.00     8.37     0  02:24        1.99
  YS02001762           JUNCTION     0.23     1.99     8.39     0  02:27        1.98
  YS02001765           JUNCTION     0.22     1.97     8.42     0  02:27        1.95
  YS02001767           JUNCTION     0.22     1.95     8.43     0  02:27        1.93
  YS02001770           JUNCTION     0.23     1.94     8.44     0  02:27        1.93
  YS02001774           JUNCTION     0.29     2.00     8.42     0  02:30        1.99
  YS02001779           JUNCTION     0.14     1.68     8.37     0  02:18        1.68
  YS02001783           JUNCTION     0.22     1.26     7.40     0  02:18        1.26
  YS02001784           JUNCTION     0.23     1.27     7.34     0  02:30        1.27
  YS02001786           JUNCTION     0.20     0.90     6.93     0  02:30        0.87
  YS02001788           JUNCTION     0.14     0.62     6.60     0  02:22        0.62
  YS02001790           JUNCTION     0.17     0.72     6.37     0  02:22        0.71
  YS02001791           JUNCTION     0.11     0.44     5.91     0  02:28        0.43
  YS02001793           JUNCTION     0.06     0.29     5.12     0  02:20        0.28
  YS02001882           JUNCTION     0.27     1.73     8.45     0  02:30        1.65
  YS02001884           JUNCTION     0.35     1.81     8.42     0  02:30        1.74
  YS02001887           JUNCTION     0.42     1.84     8.38     0  02:30        1.82
  YS02001890           JUNCTION     0.45     1.81     8.32     0  02:18        1.81
  YS02001895           JUNCTION     0.24     1.75     8.50     0  02:30        1.75
  YS02001898           JUNCTION     0.25     1.76     8.49     0  02:30        1.76
  YS02001901           JUNCTION     0.35     1.74     8.35     0  02:30        1.69
  YS02001904           JUNCTION     0.33     1.67     8.30     0  02:30        1.64
  YS02001907           JUNCTION     0.62     1.96     8.25     0  02:18        1.96
  YS02001910           JUNCTION     0.44     1.98     8.48     0  02:19        1.98
  YS02001915           JUNCTION     0.27     1.93     8.65     0  02:19        1.93
  YS02001918           JUNCTION     0.14     1.81     8.88     0  02:19        1.81
  YS02001920           JUNCTION     0.22     2.14     9.15     0  02:19        2.14
  YS02001923           JUNCTION     0.10     2.03     9.29     0  02:19        2.03
  YS02001926           JUNCTION     0.14     1.90     9.35     0  02:18        1.90
  YS02001929           JUNCTION     0.08     1.78     9.47     0  02:18        1.78
  YS02006553           JUNCTION     0.63     2.08     8.37     0  02:30        2.08
  YS02006556           JUNCTION     0.60     1.97     8.28     0  02:23        1.96
  YS02006558           JUNCTION     0.65     2.02     8.28     0  02:23        2.01
  YS02006561           JUNCTION     0.13     0.93     7.59     0  02:18        0.91
  YS02163301           JUNCTION     0.43     1.95     8.46     0  02:30        1.90
  YS02163601           JUNCTION     0.52     2.08     8.48     0  02:30        2.01
  YS02164001           JUNCTION     0.45     2.08     8.53     0  02:30        1.93
  YSB1154              JUNCTION     0.42     1.96    11.02     0  02:24        1.96
  YSB1171              JUNCTION     0.55     1.95    10.85     0  02:12        1.95
  YSB1174              JUNCTION     0.38     1.82    10.93     0  02:23        1.81
  YSB6556              JUNCTION     0.33     1.77    10.94     0  02:30        1.76
  CC-1                 OUTFALL      0.00     0.00     0.00     0  00:00        0.00
  CC-2                 OUTFALL      0.00     0.00     0.00     0  00:00        0.00
  JK-1                 OUTFALL      0.00     0.00     0.00     0  00:00        0.00
  JK-2                 OUTFALL      0.00     0.00     0.00     0  00:00        0.00
  WSC                  OUTFALL      0.28     0.52     1.19     0  02:28        0.52
  CC-storage           STORAGE      0.67     1.41     6.91     0  02:45        1.41
  JK-storage           STORAGE      1.40     4.22     5.02     0  02:19        4.20
  XR-storage           STORAGE      7.71     9.26     7.26     0  08:00        9.26
  
  
  *******************
  Node Inflow Summary
  *******************
  
  -------------------------------------------------------------------------------------------------
                                  Maximum  Maximum                  Lateral       Total        Flow
                                  Lateral    Total  Time of Max      Inflow      Inflow     Balance
                                   Inflow   Inflow   Occurrence      Volume      Volume       Error
  Node                 Type           LPS      LPS  days hr:min    10^6 ltr    10^6 ltr     Percent
  -------------------------------------------------------------------------------------------------
  HS02004478           JUNCTION      0.00  2303.93     0  02:22           0        8.59      -0.006
  HS02004479           JUNCTION      0.00   391.45     0  02:17           0       0.801       0.123
  HS02004480           JUNCTION      0.00  2057.18     0  02:15           0        6.41       0.034
  HS02004770           JUNCTION   2023.06  2023.06     0  02:25        2.86        3.08       0.093
  HS02004777           JUNCTION      0.03   718.60     0  02:12    0.000864        1.84       0.273
  HS02004785           JUNCTION      0.15   742.82     0  02:12     0.00432        1.84       0.031
  HS02004788           JUNCTION    693.17   869.55     0  02:25        1.03        2.87       0.015
  HS02004792           JUNCTION   2622.42  3491.46     0  02:25        3.97        6.84       0.003
  HS02004799           JUNCTION    374.48  1743.19     0  02:13        0.49        5.81       0.049
  HS02004802           JUNCTION      0.00  1233.31     0  02:27           0        2.33       0.169
  HS02004807           JUNCTION    483.48  1678.31     0  02:25       0.626        2.49       0.173
  HS02004817           JUNCTION      0.60  1196.97     0  02:26      0.0173        1.92       0.877
  HS02004824           JUNCTION    756.95  1325.12     0  02:26         1.3        2.11       0.039
  HS02004830           JUNCTION      0.15   579.11     0  02:13     0.00432       0.985       0.126
  HS02004837           JUNCTION    477.35   736.88     0  02:16       0.822        1.26       0.074
  HS02004842           JUNCTION      0.00   739.82     0  02:16           0       0.727       1.813
  HS02004848           JUNCTION    722.61  1012.16     0  02:16        1.33        1.84      -0.011
  HS02004852           JUNCTION      0.00   991.02     0  02:16           0        1.63      -0.051
  HS02004856           JUNCTION    191.61  1053.33     0  02:16        0.25        1.88       0.086
  HS02004862           JUNCTION    334.02  1132.15     0  02:16       0.569        2.45       0.016
  HS02004870           JUNCTION    262.91  1240.40     0  02:23       0.343        2.78       0.015
  HS02004876           JUNCTION    301.86  1513.99     0  02:26       0.422         3.2       0.032
  HS02004881           JUNCTION    145.48  1651.80     0  02:24       0.186        3.39       0.005
  HS02004901           JUNCTION    462.45   727.69     0  02:25       0.608       0.958       0.179
  WS02001211           JUNCTION      7.35   204.70     0  02:59       0.212        5.44       0.611
  WS02001212           JUNCTION      0.00   211.84     0  02:59           0        5.41       0.290
  WS02001213           JUNCTION      0.00   217.30     0  02:58           0        5.39       0.334
  WS02003059           JUNCTION      0.00   222.63     0  02:58           0        5.38       0.597
  WS02003060           JUNCTION     16.53  1540.01     0  02:25       0.476          14       0.107
  WS02003066           JUNCTION      0.00  1343.42     0  02:25           0        8.18       0.020
  WS02003067           JUNCTION      0.00  1342.53     0  02:25           0        8.18       0.055
  WS02003069           JUNCTION      0.32  1539.34     0  02:26     0.00922          14       0.113
  WS02003072           JUNCTION      0.00  1538.66     0  02:26           0          14       0.152
  WS02003073           JUNCTION      1.82  1540.67     0  02:27      0.0524          14       0.158
  WS02004138           JUNCTION      0.00   380.00     0  00:00           0        5.25       0.052
  WS02004139           JUNCTION      0.32   190.32     0  00:32     0.00924        5.26       0.509
  WS02004401           JUNCTION      0.00  1340.71     0  02:25           0        8.29       0.133
  WS02004402           JUNCTION      0.00  1340.30     0  02:24           0        8.28       0.131
  WS02004403           JUNCTION      0.00  1340.82     0  02:25           0        8.27       0.127
  WS02004404           JUNCTION      0.16  1341.07     0  02:25     0.00467        8.26       0.120
  WS02004405           JUNCTION      0.04  1341.61     0  02:25      0.0011        8.25       0.141
  WS02004406           JUNCTION      0.00  1342.35     0  02:25           0        8.24       0.260
  WS02004407           JUNCTION      0.00  1341.69     0  02:25           0        8.22       0.020
  WS02004409           JUNCTION      0.00  1342.16     0  02:25           0        8.22       0.043
  WS02004410           JUNCTION      0.00  1342.56     0  02:25           0        8.21       0.068
  WS02004411           JUNCTION      0.00  1342.24     0  02:25           0        8.21       0.080
  WS02004412           JUNCTION      0.00  1342.50     0  02:25           0         8.2       0.102
  WS02004413           JUNCTION      0.00  1342.67     0  02:25           0        8.19       0.180
  WS02006109           JUNCTION      1.23  1289.40     0  02:22      0.0354        8.08       0.129
  WS02006110           JUNCTION      0.00  1122.80     0  02:39           0        7.79       0.107
  WS02006111           JUNCTION      0.00  1122.57     0  02:39           0        7.78       0.014
  WS02006112           JUNCTION    403.82  1341.28     0  02:25       0.542        8.32       0.231
  WS02006113           JUNCTION      0.00  1122.88     0  02:39           0        7.78       0.030
  WS02006115           JUNCTION      0.00  1340.99     0  02:24           0         8.3       0.087
  WS02006116           JUNCTION      0.00  1341.38     0  02:25           0        8.29       0.063
  WS02006228           JUNCTION      0.00  1288.57     0  02:22           0        8.05       0.067
  WS02006229           JUNCTION      0.00  2305.90     0  02:22           0        10.4       0.085
  WS02006230           JUNCTION     10.28  1026.43     0  02:22       0.296        4.16       0.238
  WS02006231           JUNCTION      0.00   486.84     0  02:30           0        2.94      -0.127
  WS02006232           JUNCTION      0.00   484.01     0  02:30           0        2.93       0.237
  WS02006234           JUNCTION      0.00   476.01     0  02:30           0        2.92      -0.281
  WS02006235           JUNCTION      0.00   452.87     0  03:15           0        2.92       0.325
  WS02006238           JUNCTION      0.00   415.95     0  02:45           0        2.71      -0.069
  WS02006239           JUNCTION      0.00   415.23     0  02:46           0        2.65      -0.078
  WS02006240           JUNCTION      0.00   415.34     0  02:45           0        2.63       0.065
  WS02006242           JUNCTION      0.00   415.06     0  02:15           0        2.62       0.007
  WS02006243           JUNCTION      0.00   382.16     0  03:17           0        2.25      -0.079
  WS02006245           JUNCTION      0.00   383.09     0  00:05           0        2.26       0.587
  WS02006247           JUNCTION      0.00   385.59     0  00:04           0        2.26       0.013
  WS02006248           JUNCTION      0.00   390.96     0  00:04           0        2.52      -0.140
  WS02006249           JUNCTION      0.00  1376.86     0  02:25           0        5.42       0.203
  WS02006251           JUNCTION      0.08  1698.80     0  02:25     0.00222        5.62      -0.014
  WS02006252           JUNCTION      0.00   721.91     0  02:25           0         2.6      -0.665
  WS02006253           JUNCTION     46.90  1698.96     0  02:24       0.058         3.5       0.065
  WS02006256           JUNCTION      0.00   300.00     0  00:00           0        0.82      -2.605
  WS02006280           JUNCTION      0.00  2304.21     0  02:22           0        8.57       0.009
  WS02006284           JUNCTION      0.10  2304.31     0  02:22     0.00275        8.57      -0.005
  WS02006287           JUNCTION      0.00  2304.81     0  02:22           0        8.57       0.011
  WSF200               JUNCTION      0.00  1343.65     0  02:25           0        8.17       0.010
  YS02001580           JUNCTION      0.00    76.78     0  02:12           0     0.00408       1.449
  YS02001583           JUNCTION      0.00   126.67     0  02:11           0      0.0152      -4.464
  YS02001586           JUNCTION    837.96   837.96     0  02:26        1.59         1.6       0.065
  YS02001590           JUNCTION      0.00   318.07     0  02:30           0        1.23      -0.041
  YS02001593           JUNCTION      0.00   318.56     0  02:30           0        1.23       0.011
  YS02001596           JUNCTION      0.00   318.31     0  02:29           0        1.23      -0.000
  YS02001600           JUNCTION      0.00   318.02     0  02:28           0        1.23       0.018
  YS02001601           JUNCTION   1402.14  1719.46     0  02:25        2.11        3.34       0.024
  YS02001602           JUNCTION      0.00   490.35     0  02:11           0        2.14       0.018
  YS02001605           JUNCTION      0.00   490.58     0  02:11           0        2.05       0.013
  YS02001607           JUNCTION      0.00   490.34     0  02:11           0        2.05       0.092
  YS02001610           JUNCTION      0.00   806.12     0  02:26           0        2.27       0.097
  YS02001613           JUNCTION      0.00   492.40     0  02:10           0        1.89       0.083
  YS02001616           JUNCTION      0.00   491.45     0  02:11           0        1.89       0.026
  YS02001619           JUNCTION   1448.16  1448.16     0  02:26        2.47        4.14       0.000
  YS02001622           JUNCTION      0.00   995.18     0  02:25           0        3.92       0.000
  YS02001625           JUNCTION      0.00  1380.41     0  02:26           0        4.08       0.214
  YS02001629           JUNCTION      0.00   943.59     0  02:16           0        3.36       0.027
  YS02001633           JUNCTION   1085.87  1397.11     0  02:17         1.6        4.77       0.072
  YS02001641           JUNCTION      0.00  1398.36     0  02:17           0        4.57       0.066
  YS02001644           JUNCTION    928.34  1786.20     0  02:17        1.31        5.88       0.057
  YS02001647           JUNCTION      0.00  1785.77     0  02:17           0        5.58       0.012
  YS02001649           JUNCTION      0.00  2052.96     0  02:18           0        6.85       0.007
  YS02001652           JUNCTION      0.00   981.30     0  02:25           0        1.27      -0.067
  YS02001655           JUNCTION      0.15   981.26     0  02:25     0.00443        1.27       0.023
  YS02001658           JUNCTION      0.00   981.04     0  02:25           0        1.26      -0.013
  YS02001661           JUNCTION      0.00   979.01     0  02:25           0        1.26       0.010
  YS02001664           JUNCTION    947.70   947.70     0  02:25        1.26        1.26      -0.005
  YS02001745           JUNCTION    558.98   558.98     0  02:25       0.718       0.718       0.171
  YS02001748           JUNCTION      0.04   571.79     0  02:24      0.0013       0.719      -0.288
  YS02001751           JUNCTION      0.01   572.84     0  02:24    0.000317       0.724       0.053
  YS02001754           JUNCTION      0.26   572.66     0  02:24     0.00749       0.733      -0.157
  YS02001757           JUNCTION      0.00  3500.53     0  02:23           0        10.1       0.066
  YS02001759           JUNCTION    818.59  1451.91     0  02:23        1.05        2.48      -0.001
  YS02001762           JUNCTION      0.00   770.51     0  02:21           0        1.43       0.021
  YS02001765           JUNCTION      0.00   770.70     0  02:21           0        1.43       0.031
  YS02001767           JUNCTION      0.54   770.54     0  02:21      0.0154        1.43       0.001
  YS02001770           JUNCTION   1126.86  1126.86     0  02:25        1.54        1.58       0.012
  YS02001774           JUNCTION      0.00   541.45     0  02:25           0       0.188       0.607
  YS02001779           JUNCTION      0.01   542.49     0  02:25    0.000144       0.146      -0.283
  YS02001783           JUNCTION      0.00  1167.08     0  02:23           0        3.61       0.008
  YS02001784           JUNCTION      1.06  1168.42     0  02:24      0.0305        3.64       0.013
  YS02001786           JUNCTION      0.06  1168.50     0  02:24     0.00162        3.65       0.017
  YS02001788           JUNCTION      0.07  1170.11     0  02:24     0.00204        3.65       0.008
  YS02001790           JUNCTION      0.15  1173.38     0  02:25     0.00446        3.65       0.027
  YS02001791           JUNCTION      0.00  1282.75     0  02:22           0        3.65      -0.027
  YS02001793           JUNCTION      0.00  1247.63     0  02:29           0        3.65       0.006
  YS02001882           JUNCTION      0.00    39.66     0  02:30           0      0.0127       6.331
  YS02001884           JUNCTION      0.00    47.64     0  02:15           0      0.0484       5.345
  YS02001887           JUNCTION    856.29   856.32     0  02:25        1.08        1.12       0.416
  YS02001890           JUNCTION      0.00   856.62     0  02:25           0        1.08       0.465
  YS02001895           JUNCTION      0.00   516.92     0  02:28           0       0.983       0.152
  YS02001898           JUNCTION      0.00   516.94     0  02:27           0       0.981       0.031
  YS02001901           JUNCTION      0.00   516.91     0  02:28           0       0.984       0.320
  YS02001904           JUNCTION      0.00   516.92     0  02:27           0       0.988       0.275
  YS02001907           JUNCTION      0.00  1946.19     0  02:25           0        3.15       0.566
  YS02001910           JUNCTION      0.00  1430.35     0  02:25           0        2.17       0.330
  YS02001915           JUNCTION    933.73  1430.71     0  02:25        1.33         2.2       0.075
  YS02001918           JUNCTION      0.00   505.16     0  02:25           0       0.882       0.015
  YS02001920           JUNCTION      2.87   505.30     0  02:25      0.0827       0.869       0.104
  YS02001923           JUNCTION      0.04   500.26     0  02:25     0.00109       0.773      -0.036
  YS02001926           JUNCTION      0.05   500.05     0  02:25      0.0015       0.758      -0.018
  YS02001929           JUNCTION    483.55   483.55     0  02:25        0.75        0.75      -0.147
  YS02006553           JUNCTION      0.00   803.45     0  02:36           0        2.16       0.549
  YS02006556           JUNCTION      0.00   803.47     0  02:36           0        2.17       0.383
  YS02006558           JUNCTION   1121.99  1169.10     0  02:30         1.5        3.64       0.103
  YS02006561           JUNCTION      0.00  1167.60     0  02:24           0        3.61      -0.003
  YS02163301           JUNCTION      0.00   943.53     0  02:16           0        3.36       0.050
  YS02163601           JUNCTION      0.11  1396.88     0  02:17     0.00317        4.57       0.110
  YS02164001           JUNCTION      0.00  1396.99     0  02:17           0        4.57       0.063
  YSB1154              JUNCTION    486.27   486.27     0  02:25       0.672       0.673       0.219
  YSB1171              JUNCTION      0.00  1126.90     0  02:25           0        1.29       0.495
  YSB1174              JUNCTION    404.93   404.93     0  02:25       0.502       0.502       0.245
  YSB6556              JUNCTION      0.00   486.49     0  02:25           0       0.674       0.182
  CC-1                 OUTFALL       0.00   683.00     0  00:00           0         4.4       0.000
  CC-2                 OUTFALL       0.00   683.00     0  00:00           0        4.05       0.000
  JK-1                 OUTFALL       0.00  1000.00     0  00:00           0        1.61       0.000
  JK-2                 OUTFALL       0.00  1000.00     0  00:00           0        1.34       0.000
  WSC                  OUTFALL       0.00  1541.08     0  02:28           0          14       0.000
  CC-storage           STORAGE       0.00  3498.68     0  02:23           0        12.3      -0.256
  JK-storage           STORAGE       0.00  1259.41     0  02:25           0         3.8      -0.452
  XR-storage           STORAGE     200.00   200.00     0  00:00        5.76        6.36       0.001
  
  
  **********************
  Node Surcharge Summary
  **********************
  
  Surcharging occurs when water rises above the top of the highest conduit.
  ---------------------------------------------------------------------
                                               Max. Height   Min. Depth
                                   Hours       Above Crown    Below Rim
  Node                 Type      Surcharged         Meters       Meters
  ---------------------------------------------------------------------
  HS02004478           JUNCTION        0.48          0.668        0.272
  HS02004479           JUNCTION        0.61          0.900        0.150
  HS02004480           JUNCTION        0.65          0.963        0.137
  HS02004770           JUNCTION        0.56          0.720        0.000
  HS02004777           JUNCTION        0.56          0.780        0.000
  HS02004785           JUNCTION        0.51          0.763        0.027
  HS02004788           JUNCTION        0.50          0.720        0.000
  HS02004792           JUNCTION        0.62          0.900        0.000
  HS02004799           JUNCTION        0.76          1.060        0.000
  HS02004802           JUNCTION        0.66          1.091        0.119
  HS02004807           JUNCTION        0.64          1.220        0.000
  HS02004817           JUNCTION        1.20          1.717        0.023
  HS02004824           JUNCTION        0.50          1.310        0.000
  HS02004830           JUNCTION        0.48          1.292        0.038
  HS02004837           JUNCTION        0.44          1.254        0.086
  HS02004842           JUNCTION        0.57          1.520        0.000
  HS02004848           JUNCTION        0.39          1.284        0.086
  HS02004852           JUNCTION        0.42          1.335        0.085
  HS02004856           JUNCTION        0.41          1.273        0.027
  HS02004862           JUNCTION        0.44          1.300        0.000
  HS02004870           JUNCTION        0.46          1.306        0.094
  HS02004876           JUNCTION        0.52          1.400        0.160
  HS02004881           JUNCTION        0.50          1.146        0.304
  HS02004901           JUNCTION        0.56          0.720        0.000
  WS02004401           JUNCTION        1.49          0.995        0.665
  WS02004402           JUNCTION        1.52          0.941        0.799
  WS02004403           JUNCTION        1.53          0.860        1.170
  WS02004404           JUNCTION        1.64          0.857        1.923
  WS02004405           JUNCTION        1.63          0.792        2.008
  WS02004406           JUNCTION        1.60          0.791        1.659
  WS02004407           JUNCTION        0.01          0.006        2.334
  WS02004409           JUNCTION        1.01          0.435        1.925
  WS02004410           JUNCTION        0.96          0.335        2.205
  WS02004411           JUNCTION        0.88          0.236        2.294
  WS02004412           JUNCTION        0.79          0.126        2.184
  WS02004413           JUNCTION        1.23          0.157        2.043
  WS02006109           JUNCTION        2.01          1.820        0.000
  WS02006110           JUNCTION        1.75          1.524        0.326
  WS02006111           JUNCTION        1.22          1.047        0.823
  WS02006112           JUNCTION        1.82          1.521        0.159
  WS02006113           JUNCTION        1.22          1.100        0.830
  WS02006115           JUNCTION        1.38          1.087        1.163
  WS02006116           JUNCTION        1.41          1.020        1.270
  WS02006228           JUNCTION        2.00          2.200        0.000
  WS02006229           JUNCTION        0.91          1.066        0.004
  WS02006230           JUNCTION        1.61          1.570        0.000
  WS02006231           JUNCTION        1.60          1.481        0.049
  WS02006232           JUNCTION        1.78          1.480        0.000
  WS02006234           JUNCTION        1.60          1.240        0.000
  WS02006235           JUNCTION        1.63          1.290        0.000
  WS02006238           JUNCTION        1.66          1.332        0.098
  WS02006239           JUNCTION        1.61          1.190        0.100
  WS02006240           JUNCTION        1.59          1.021        0.369
  WS02006242           JUNCTION        1.63          0.820        0.000
  WS02006243           JUNCTION        1.53          0.770        0.000
  WS02006245           JUNCTION        1.52          0.850        0.000
  WS02006247           JUNCTION        1.52          0.760        0.000
  WS02006248           JUNCTION        1.51          0.380        0.000
  WS02006249           JUNCTION        1.51          0.390        0.000
  WS02006251           JUNCTION        1.41          1.180        0.000
  WS02006252           JUNCTION        1.62          1.100        0.000
  WS02006253           JUNCTION        1.44          2.084        0.396
  WS02006256           JUNCTION        7.21          2.050        0.000
  WS02006280           JUNCTION        0.76          0.780        0.000
  WS02006284           JUNCTION        0.68          0.800        0.000
  WS02006287           JUNCTION        0.58          0.834        0.056
  YS02001580           JUNCTION        0.56          0.450        0.000
  YS02001583           JUNCTION        0.56          0.383        0.117
  YS02001586           JUNCTION        0.64          0.510        0.000
  YS02001590           JUNCTION        0.71          0.750        0.000
  YS02001593           JUNCTION        0.71          0.716        0.124
  YS02001596           JUNCTION        0.82          1.025        0.045
  YS02001600           JUNCTION        0.98          1.190        0.000
  YS02001601           JUNCTION        1.33          1.440        0.000
  YS02001602           JUNCTION        1.21          1.270        0.000
  YS02001605           JUNCTION        1.16          1.180        0.000
  YS02001607           JUNCTION        0.66          0.646        0.034
  YS02001610           JUNCTION        0.68          0.680        0.000
  YS02001613           JUNCTION        0.65          0.700        0.000
  YS02001616           JUNCTION        0.62          0.610        0.000
  YS02001619           JUNCTION        0.60          0.610        0.000
  YS02001622           JUNCTION        0.60          0.595        0.025
  YS02001625           JUNCTION        0.77          0.780        0.000
  YS02001629           JUNCTION        0.54          0.470        0.000
  YS02001633           JUNCTION        0.78          1.034        0.026
  YS02001641           JUNCTION        0.69          1.052        0.048
  YS02001644           JUNCTION        0.65          0.920        0.000
  YS02001647           JUNCTION        0.43          0.754        0.146
  YS02001649           JUNCTION        0.50          0.977        0.073
  YS02001652           JUNCTION        0.36          0.804        0.326
  YS02001655           JUNCTION        0.26          0.634        0.566
  YS02001658           JUNCTION        0.16          0.394        0.906
  YS02001661           JUNCTION        0.03          0.132        1.258
  YS02001748           JUNCTION        0.09          0.309        0.881
  YS02001751           JUNCTION        0.19          0.502        0.698
  YS02001754           JUNCTION        0.27          0.631        0.519
  YS02001757           JUNCTION        0.53          0.998        0.212
  YS02001759           JUNCTION        0.45          1.003        0.207
  YS02001762           JUNCTION        0.42          0.994        0.156
  YS02001765           JUNCTION        0.40          0.971        0.129
  YS02001767           JUNCTION        0.37          0.945        0.085
  YS02001770           JUNCTION        0.36          0.912        0.008
  YS02001774           JUNCTION        0.42          0.996        0.054
  YS02001779           JUNCTION        0.28          0.680        0.000
  YS02001783           JUNCTION        0.45          0.460        1.140
  YS02001784           JUNCTION        0.43          0.471        1.019
  YS02001786           JUNCTION        0.33          0.102        1.328
  YS02001882           JUNCTION        0.40          0.733        0.097
  YS02001884           JUNCTION        0.41          0.748        0.122
  YS02001887           JUNCTION        0.44          0.789        0.161
  YS02001890           JUNCTION        0.46          0.760        0.000
  YS02001895           JUNCTION        0.39          0.750        0.000
  YS02001898           JUNCTION        0.38          0.729        0.011
  YS02001901           JUNCTION        0.43          0.737        0.133
  YS02001904           JUNCTION        0.42          0.673        0.177
  YS02001907           JUNCTION        0.68          0.950        0.000
  YS02001910           JUNCTION        0.48          0.976        0.124
  YS02001915           JUNCTION        0.40          0.933        0.067
  YS02001918           JUNCTION        0.32          0.810        0.000
  YS02001920           JUNCTION        0.33          1.140        0.000
  YS02001923           JUNCTION        0.08          0.820        0.000
  YS02001926           JUNCTION        0.11          0.900        0.000
  YS02001929           JUNCTION        0.01          0.780        0.000
  YS02006553           JUNCTION        0.70          1.085        0.105
  YS02006556           JUNCTION        0.58          0.926        0.424
  YS02006558           JUNCTION        0.56          0.917        0.483
  YS02006561           JUNCTION        0.28          0.131        1.019
  YS02163301           JUNCTION        0.76          0.947        0.083
  YS02163601           JUNCTION        0.81          1.080        0.000
  YS02164001           JUNCTION        0.70          1.077        0.023
  YSB1154              JUNCTION        0.87          1.264        0.136
  YSB1171              JUNCTION        0.88          1.100        0.000
  YSB1174              JUNCTION        0.79          1.122        0.128
  YSB6556              JUNCTION        0.72          1.075        0.025
  
  
  *********************
  Node Flooding Summary
  *********************
  
  Flooding refers to all water that overflows a node, whether it ponds or not.
  --------------------------------------------------------------------------
                                                             Total   Maximum
                                 Maximum   Time of Max       Flood    Ponded
                        Hours       Rate    Occurrence      Volume     Depth
  Node                 Flooded       LPS   days hr:min    10^6 ltr    Meters
  --------------------------------------------------------------------------
  HS02004770              0.40   1581.23      0  02:25       0.882     0.000
  HS02004777              0.01     28.90      0  02:12       0.000     0.000
  HS02004788              0.01    156.96      0  02:30       0.001     0.000
  HS02004792              0.38   2347.58      0  02:25       1.518     0.000
  HS02004799              0.19    214.05      0  02:25       0.081     0.000
  HS02004807              0.12    447.04      0  02:25       0.123     0.000
  HS02004824              0.07    128.87      0  02:26       0.021     0.000
  HS02004842              0.07    110.60      0  02:25       0.016     0.000
  HS02004862              0.06    105.97      0  02:25       0.011     0.000
  HS02004901              0.45    727.32      0  02:25       0.736     0.000
  WS02006109              0.42    350.85      0  02:25       0.281     0.000
  WS02006228              0.01      2.92      0  02:30       0.000     0.000
  WS02006230              0.69    573.59      0  02:22       0.950     0.000
  WS02006232              0.17      8.18      0  02:30       0.000     0.000
  WS02006234              0.73    137.11      0  02:30       0.222     0.000
  WS02006235              0.01     35.29      0  02:30       0.000     0.000
  WS02006242              0.88    137.48      0  02:46       0.363     0.000
  WS02006243              0.01    100.52      0  01:50       0.000     0.000
  WS02006245              0.01     15.92      0  01:51       0.000     0.000
  WS02006247              0.01    134.43      0  01:50       0.000     0.000
  WS02006248              1.21    339.94      0  02:05       1.200     0.000
  WS02006249              1.47   1315.99      0  02:25       3.840     0.000
  WS02006251              0.01      1.13      0  02:30       0.000     0.000
  WS02006252              0.45    721.79      0  02:25       0.502     0.000
  WS02006256              0.75    295.32      0  02:45       0.450     0.000
  WS02006280              0.01      0.51      0  02:30       0.000     0.000
  WS02006284              0.01      0.56      0  02:30       0.000     0.000
  YS02001580              0.01     43.04      0  02:12       0.000     0.000
  YS02001586              0.44    520.28      0  02:26       0.361     0.000
  YS02001590              0.01      8.95      0  02:12       0.000     0.000
  YS02001600              0.01      2.73      0  02:12       0.000     0.000
  YS02001601              0.57   1321.29      0  02:25       1.198     0.000
  YS02001602              0.43     62.00      0  02:27       0.088     0.000
  YS02001605              0.01      1.48      0  02:30       0.000     0.000
  YS02001610              0.38    805.90      0  02:26       0.594     0.000
  YS02001613              0.01      0.49      0  02:30       0.000     0.000
  YS02001616              0.01     41.63      0  02:30       0.000     0.000
  YS02001619              0.01     35.11      0  02:30       0.000     0.000
  YS02001625              0.34   1380.38      0  02:26       0.897     0.000
  YS02001629              0.13    141.85      0  02:24       0.042     0.000
  YS02001644              0.16   1029.93      0  02:25       0.293     0.000
  YS02001779              0.13    542.33      0  02:25       0.129     0.000
  YS02001890              0.17    341.41      0  02:25       0.088     0.000
  YS02001895              0.01      0.67      0  02:30       0.000     0.000
  YS02001907              0.27   1904.45      0  02:25       0.981     0.000
  YS02001918              0.01     99.23      0  02:19       0.001     0.000
  YS02001920              0.01     17.14      0  02:19       0.000     0.000
  YS02001923              0.01     34.82      0  02:19       0.000     0.000
  YS02001926              0.01     97.36      0  02:18       0.000     0.000
  YS02001929              0.01    225.76      0  02:18       0.001     0.000
  YS02163601              0.01     50.18      0  02:30       0.000     0.000
  YSB1171                 0.28   1126.55      0  02:25       0.601     0.000
  
  
  **********************
  Storage Volume Summary
  **********************
  
  --------------------------------------------------------------------------------------------------
                         Average     Avg  Evap Exfil       Maximum     Max    Time of Max    Maximum
                          Volume    Pcnt  Pcnt  Pcnt        Volume    Pcnt     Occurrence    Outflow
  Storage Unit           1000 m3    Full  Loss  Loss       1000 m3    Full    days hr:min        LPS
  --------------------------------------------------------------------------------------------------
  CC-storage               1.874      29     0     0         3.936      61       0  02:45    1783.53
  JK-storage               0.070      24     0     0         0.212      73       0  02:19    2300.00
  XR-storage               0.925      64     0     0         1.111      77       0  08:00     380.00
  
  
  ***********************
  Outfall Loading Summary
  ***********************
  
  -----------------------------------------------------------
                         Flow       Avg       Max       Total
                         Freq      Flow      Flow      Volume
  Outfall Node           Pcnt       LPS       LPS    10^6 ltr
  -----------------------------------------------------------
  CC-1                  38.65    683.00    683.00       4.405
  CC-2                  35.37    683.00    683.00       4.050
  JK-1                   7.82   1000.00   1000.00       1.614
  JK-2                   6.38   1000.00   1000.00       1.343
  WSC                   99.96    581.37   1541.08      13.978
  -----------------------------------------------------------
  System                37.63   3947.37   1541.08      25.390
  
  
  ********************
  Link Flow Summary
  ********************
  
  -----------------------------------------------------------------------------
                                 Maximum  Time of Max   Maximum    Max/    Max/
                                  |Flow|   Occurrence   |Veloc|    Full    Full
  Link                 Type          LPS  days hr:min     m/sec    Flow   Depth
  -----------------------------------------------------------------------------
  1                    CONDUIT   1541.08     0  02:28      3.72    0.54    0.52
  HS02004478WS02006287 CONDUIT   2304.81     0  02:22      2.57    0.65    1.00
  HS02004479HS02004480 CONDUIT    393.83     0  02:17      0.56    0.38    1.00
  HS02004480HS02004478 CONDUIT   2054.54     0  02:15      2.94    8.65    1.00
  HS02004770HS02004777 CONDUIT    718.57     0  02:12      1.03    1.31    1.00
  HS02004777HS02004785 CONDUIT    742.67     0  02:12      1.12    0.91    1.00
  HS02004785HS02004788 CONDUIT    631.16     0  02:13      1.36    4.76    1.00
  HS02004788HS02004792 CONDUIT    869.04     0  02:25      1.43    0.58    1.00
  HS02004792HS02004799 CONDUIT   1624.24     0  02:13      2.32    0.99    1.00
  HS02004799HS02004480 CONDUIT   1742.37     0  02:13      2.49    2.20    1.00
  HS02004802HS02004478 CONDUIT   1233.78     0  02:26      1.76    1.09    1.00
  HS02004807HS02004802 CONDUIT   1233.31     0  02:27      1.76    2.35    1.00
  HS02004817HS02004807 CONDUIT   1196.96     0  02:26      1.71    0.71    1.00
  HS02004817HS02004824 CONDUIT   1196.37     0  02:26      1.71    0.54    1.00
  HS02004824HS02004830 CONDUIT    578.96     0  02:13      0.85    0.76    1.00
  HS02004830HS02004837 CONDUIT    569.06     0  02:13      0.89    0.57    1.00
  HS02004837HS02004842 CONDUIT    739.82     0  02:16      1.06    0.44    1.00
  HS02004842HS02004848 CONDUIT    739.37     0  02:16      1.11    0.43    1.00
  HS02004848HS02004852 CONDUIT    991.02     0  02:16      1.53    1.12    1.00
  HS02004852HS02004856 CONDUIT    979.07     0  02:16      1.44    1.12    1.00
  HS02004856HS02004862 CONDUIT   1008.43     0  02:16      1.65    1.01    1.00
  HS02004862HS02004870 CONDUIT   1079.69     0  02:15      1.89    1.17    1.00
  HS02004870HS02004876 CONDUIT   1240.09     0  02:23      1.77    0.82    1.00
  HS02004876HS02004881 CONDUIT   1513.71     0  02:26      2.41   16.10    1.00
  HS02004881HS02006253 CONDUIT   1652.16     0  02:24      2.52    0.32    1.00
  HS02004901HS02004770 CONDUIT    265.79     0  02:36      0.38    1.00    1.00
  WS02001211WS02001212 CONDUIT    211.84     0  02:59      0.54    0.16    0.70
  WS02001212WS02001213 CONDUIT    217.30     0  02:58      1.04    0.34    0.57
  WS02001213WS02003059 CONDUIT    222.63     0  02:58      0.47    0.37    0.90
  WS02003059WS02003060 CONDUIT    229.03     0  02:58      0.66    0.15    0.82
  WS02003060WS02003069 CONDUIT   1539.02     0  02:26      2.10    0.60    0.62
  WS02003066WSF200     CONDUIT   1343.65     0  02:25      3.27    0.23    0.39
  WS02003067WS02003066 CONDUIT   1343.42     0  02:25      2.04    0.43    0.57
  WS02003069WS02003072 CONDUIT   1538.66     0  02:26      1.91    0.74    0.67
  WS02003072WS02003073 CONDUIT   1538.84     0  02:27      2.07    3.32    0.62
  WS02004138WS02004139 CONDUIT    190.00     0  00:32      2.17    0.04    0.42
  WS02004139WS02001211 CONDUIT    197.35     0  02:59      0.54    0.25    0.61
  WS02004401WS02004402 CONDUIT   1340.30     0  02:24      1.71    1.61    1.00
  WS02004402WS02004403 CONDUIT   1340.82     0  02:25      1.71    1.93    1.00
  WS02004403WS02004404 CONDUIT   1340.90     0  02:25      1.71    0.97    1.00
  WS02004404WS02004405 CONDUIT   1341.57     0  02:25      1.71   13.14    1.00
  WS02004405WS02004406 CONDUIT   1342.35     0  02:25      1.71    2.65    1.00
  WS02004406WS02004407 CONDUIT   1341.69     0  02:25      1.72    0.60    1.00
  WS02004407WS02004409 CONDUIT   1342.16     0  02:25      1.75    0.48    1.00
  WS02004409WS02004410 CONDUIT   1342.56     0  02:25      1.71    1.74    1.00
  WS02004410WS02004411 CONDUIT   1342.24     0  02:25      1.71    1.83    1.00
  WS02004411WS02004412 CONDUIT   1342.50     0  02:25      1.71    1.91    1.00
  WS02004412WS02004413 CONDUIT   1342.67     0  02:25      1.71    0.90    1.00
  WS02004413WS02003067 CONDUIT   1342.53     0  02:25      2.06    0.57    0.77
  WS02006109WS02006110 CONDUIT   1122.80     0  02:39      2.23    2.16    1.00
  WS02006110WS02006113 CONDUIT   1122.88     0  02:39      2.23    1.02    1.00
  WS02006111WS02006112 CONDUIT   1122.73     0  02:39      2.23    0.53    1.00
  WS02006112WS02006115 CONDUIT   1340.99     0  02:24      1.71    0.79    1.00
  WS02006113WS02006111 CONDUIT   1122.57     0  02:39      2.62    1.35    1.00
  WS02006115WS02006116 CONDUIT   1341.38     0  02:25      1.71    1.72    1.00
  WS02006116WS02004401 CONDUIT   1340.71     0  02:25      1.71    1.85    1.00
  WS02006228WS02006109 CONDUIT   1288.17     0  02:22      2.56    5.63    1.00
  WS02006229WS02006228 CONDUIT   1288.57     0  02:22      2.56    4.27    1.00
  WS02006230WS02006229 CONDUIT   1016.15     0  02:22      2.64   22.61    1.00
  WS02006231WS02006230 CONDUIT    486.84     0  02:30      1.27    7.38    1.00
  WS02006232WS02006231 CONDUIT    484.01     0  02:30      1.26    1.01    1.00
  WS02006234WS02006232 CONDUIT    476.01     0  02:30      1.41    0.96    1.00
  WS02006235WS02006234 CONDUIT    455.16     0  03:15      1.21    4.80    1.00
  WS02006238WS02006235 CONDUIT    415.95     0  02:45      1.45    0.93    1.00
  WS02006239WS02006238 CONDUIT    415.23     0  02:46      1.11    1.33    1.00
  WS02006240WS02006239 CONDUIT    415.34     0  02:45      1.26    1.31    1.00
  WS02006242WS02006240 CONDUIT    415.06     0  02:15      1.14    1.65    1.00
  WS02006243WS02006242 CONDUIT    381.61     0  03:17      1.34    0.82    1.00
  WS02006245WS02006243 CONDUIT    382.16     0  03:17      1.39    1.13    1.00
  WS02006247WS02006245 CONDUIT    383.09     0  00:05      1.37    3.04    1.00
  WS02006248WS02006247 CONDUIT    385.59     0  00:04      1.38    0.84    1.00
  WS02006249WS02006248 CONDUIT    390.96     0  00:04      1.38    2.14    1.00
  WS02006251WS02006249 CONDUIT   1376.86     0  02:25      3.58    3.97    1.00
  WS02006252WS02006251 CONDUIT    410.19     0  02:51     21.09    1.51    1.00
  WS02006253WS02006251 CONDUIT   1698.72     0  02:25      4.41    5.09    1.00
  WS02006256WS02006235 CONDUIT    288.93     0  00:00      4.23    3.06    1.00
  WS02006280WS02006229 CONDUIT   2305.90     0  02:22      4.20    0.49    1.00
  WS02006284WS02006280 CONDUIT   2304.21     0  02:22      3.02    0.96    1.00
  WS02006287WS02006284 CONDUIT   2304.22     0  02:22      2.93    1.07    1.00
  WSF200WS02003060     CONDUIT   1343.99     0  02:25      2.31    0.30    0.51
  YS02001580YS02001583 CONDUIT     76.78     0  02:12      0.55    0.30    1.00
  YS02001583YS02001586 CONDUIT    126.67     0  02:11      0.52    0.19    1.00
  YS02001586YS02001590 CONDUIT    318.07     0  02:30      1.26    0.56    1.00
  YS02001590YS02001593 CONDUIT    318.56     0  02:30      1.13    2.00    1.00
  YS02001593YS02001596 CONDUIT    318.31     0  02:29      1.78    0.50    1.00
  YS02001596YS02001600 CONDUIT    318.02     0  02:28      1.27    0.62    1.00
  YS02001600YS02001601 CONDUIT    317.94     0  02:29      1.12    0.55    1.00
  YS02001601YS02001602 CONDUIT    490.35     0  02:11      1.73    1.77    1.00
  YS02001602YS02001605 CONDUIT    490.58     0  02:11      1.74   10.38    1.00
  YS02001605YS02001607 CONDUIT    490.34     0  02:11      1.73    2.69    1.00
  YS02001607YS02001610 CONDUIT    491.14     0  02:11      0.63    0.47    1.00
  YS02001610YS02001613 CONDUIT    492.40     0  02:10      0.63    0.57    1.00
  YS02001613YS02001616 CONDUIT    491.45     0  02:11      0.63    0.42    1.00
  YS02001616YS02001619 CONDUIT    489.93     0  02:11      0.68    0.85    1.00
  YS02001619YS02001622 CONDUIT    995.18     0  02:25      1.27    1.47    1.00
  YS02001622YS02001625 CONDUIT    995.71     0  02:25      1.27    0.53    1.00
  YS02001625YS02001629 CONDUIT    943.59     0  02:16      1.20    0.45    1.00
  YS02001629YS02163301 CONDUIT    943.53     0  02:16      1.20    1.16    1.00
  YS02001633YS02163601 CONDUIT   1396.77     0  02:17      1.78    1.47    1.00
  YS02001641YS02001644 CONDUIT   1398.11     0  02:17      1.78    4.52    1.00
  YS02001644YS02001647 CONDUIT   1785.77     0  02:17      2.28    1.05    1.00
  YS02001647YS02001649 CONDUIT   1798.99     0  02:17      2.35    0.95    1.00
  YS02001649YS02001757 CONDUIT   2051.43     0  02:18      2.61    1.24    1.00
  YS02001652YS02001649 CONDUIT    981.27     0  02:25      1.25    0.49    1.00
  YS02001655YS02001652 CONDUIT    981.30     0  02:25      1.25    0.48    1.00
  YS02001658YS02001655 CONDUIT    981.11     0  02:25      1.86    0.42    1.00
  YS02001661YS02001658 CONDUIT    981.04     0  02:25      2.30    0.39    1.00
  YS02001664YS02001661 CONDUIT    979.01     0  02:25      2.29    0.31    0.80
  YS02001745YS02001748 CONDUIT    571.74     0  02:24      2.10    0.22    0.91
  YS02001748YS02001751 CONDUIT    572.83     0  02:24      1.63    0.29    1.00
  YS02001751YS02001754 CONDUIT    572.40     0  02:24      1.36    0.28    1.00
  YS02001754YS02001757 CONDUIT    572.32     0  02:24      0.73    0.23    1.00
  YS02001757CaochengTiaoxuchi CONDUIT   3498.68     0  02:23      4.46    1.51    1.00
  YS02001759YS02001757 CONDUIT   1452.84     0  02:23      1.85    1.03    1.00
  YS02001762YS02001759 CONDUIT    770.11     0  02:21      0.98    0.89    1.00
  YS02001765YS02001762 CONDUIT    770.51     0  02:21      0.98    0.72    1.00
  YS02001767YS02001765 CONDUIT    770.70     0  02:21      0.98    0.97    1.00
  YS02001770YS02001767 CONDUIT    770.00     0  02:21      0.98    3.05    1.00
  YS02001774YS02001770 CONDUIT    541.45     0  02:25      0.69    0.35    1.00
  YS02001779YS02001774 CONDUIT    542.49     0  02:25      0.69    0.27    1.00
  YS02001783YS02001784 CONDUIT   1167.36     0  02:24      2.32    1.61    1.00
  YS02001784YS02001785 CONDUIT   1168.45     0  02:24      2.32    2.72    1.00
  YS02001786YS02001788 CONDUIT   1170.04     0  02:24      2.49    2.25    0.89
  YS02001788YS02001790 CONDUIT   1173.22     0  02:25      2.72    0.86    0.84
  YS02001790YS02001791 CONDUIT   1282.75     0  02:22      3.42    1.40    0.70
  YS02001791YS02001793 CONDUIT   1247.63     0  02:29      6.69    0.54    0.43
  YS02001793JiankangQianchi CONDUIT   1259.41     0  02:25      2.52    0.10    0.64
  YS02001882YS02001884 CONDUIT     39.66     0  02:30      0.13    0.05    1.00
  YS02001884YS02001887 CONDUIT     47.64     0  02:15      0.09    0.06    1.00
  YS02001887YS02001890 CONDUIT    856.62     0  02:25      1.09    1.47    1.00
  YS02001890YS02001895 CONDUIT    516.92     0  02:28      0.66    0.24    1.00
  YS02001895YS02001898 CONDUIT    516.94     0  02:27      0.66    0.90    1.00
  YS02001898YS02001901 CONDUIT    516.91     0  02:28      0.66    0.33    1.00
  YS02001901YS02001904 CONDUIT    516.92     0  02:27      0.66    0.80    1.00
  YS02001904YS02001907 CONDUIT    517.21     0  02:28      0.66    0.18    1.00
  YS02001907YS02006553 CONDUIT    803.45     0  02:36      0.89    0.95    1.00
  YS02001910YS02001907 CONDUIT   1431.03     0  02:25      1.82    0.81    1.00
  YS02001915YS02001910 CONDUIT   1430.35     0  02:25      1.82    0.71    1.00
  YS02001918YS02001915 CONDUIT    505.17     0  02:25      0.64    0.28    1.00
  YS02001920YS02001918 CONDUIT    505.16     0  02:25      0.65    0.49    1.00
  YS02001923YS02001920 CONDUIT    502.43     0  02:25      0.71    0.23    1.00
  YS02001926YS02001923 CONDUIT    500.22     0  02:25      0.96    0.71    1.00
  YS02001929YS02001926 CONDUIT    500.00     0  02:25      1.10    0.24    1.00
  YS02006553YS02006556 CONDUIT    803.47     0  02:36      1.02    0.69    1.00
  YS02006556YS02006558 CONDUIT    805.88     0  02:36      1.03    0.64    1.00
  YS02006558YS02006561 CONDUIT   1167.60     0  02:24      4.13    2.58    1.00
  YS02006561YS02001783 CONDUIT   1167.08     0  02:23      2.32    0.60    1.00
  YS02163301YS02001633 CONDUIT    943.84     0  02:16      1.20    0.89    1.00
  YS02163601YS02164001 CONDUIT   1396.99     0  02:17      1.78    1.24    1.00
  YS02164001YS02001641 CONDUIT   1398.36     0  02:17      1.78    1.91    1.00
  YSB1154YSB6556       CONDUIT    486.49     0  02:25      1.26    0.87    1.00
  YSB1171HS02004479    CONDUIT    391.45     0  02:17      0.78    0.26    1.00
  YSB1174YSB1171       CONDUIT    405.06     0  02:25      1.05    0.62    1.00
  YSB6556YSB1171       CONDUIT    487.08     0  02:25      1.27    0.50    1.00
  CC-R1                PUMP       683.00     0  00:00              1.00
  CC-R2                PUMP       683.00     0  00:00              1.00
  CC-S1                PUMP       200.00     0  00:00              1.00
  CC-S2                PUMP       200.00     0  00:00              1.00
  JK-R1                PUMP      1000.00     0  00:00              1.00
  JK-R2                PUMP      1000.00     0  00:00              1.00
  JK-S                 PUMP       300.00     0  00:00              1.00
  XR-1                 PUMP        95.00     0  00:00              1.00
  XR-2                 PUMP        95.00     0  00:00              1.00
  XR-3                 PUMP        95.00     0  00:00              1.00
  XR-4                 PUMP        95.00     0  00:00              1.00
  
  
  ***************************
  Flow Classification Summary
  ***************************
  
  -------------------------------------------------------------------------------------
                      Adjusted    ---------- Fraction of Time in Flow Class ---------- 
                       /Actual         Up    Down  Sub   Sup   Up    Down  Norm  Inlet 
  Conduit               Length    Dry  Dry   Dry   Crit  Crit  Crit  Crit  Ltd   Ctrl  
  -------------------------------------------------------------------------------------
  1                       1.00   0.00  0.00  0.00  0.00  1.00  0.00  0.00  0.32  0.00
  HS02004478WS02006287    1.00   0.19  0.00  0.00  0.51  0.30  0.00  0.00  0.59  0.00
  HS02004479HS02004480    1.00   0.09  0.00  0.00  0.91  0.00  0.00  0.00  0.11  0.00
  HS02004480HS02004478    1.00   0.18  0.00  0.00  0.42  0.00  0.00  0.40  0.00  0.00
  HS02004770HS02004777    1.00   0.00  0.18  0.00  0.82  0.00  0.00  0.00  0.03  0.00
  HS02004777HS02004785    1.00   0.00  0.00  0.00  1.00  0.00  0.00  0.00  0.12  0.00
  HS02004785HS02004788    1.00   0.00  0.00  0.00  1.00  0.00  0.00  0.00  0.00  0.00
  HS02004788HS02004792    1.00   0.00  0.00  0.00  0.99  0.01  0.00  0.00  0.90  0.00
  HS02004792HS02004799    1.00   0.00  0.00  0.00  0.98  0.02  0.00  0.00  0.86  0.00
  HS02004799HS02004480    1.00   0.00  0.08  0.00  0.81  0.00  0.10  0.00  0.00  0.00
  HS02004802HS02004478    1.00   0.18  0.00  0.00  0.82  0.00  0.00  0.00  0.02  0.00
  HS02004807HS02004802    1.00   0.18  0.00  0.00  0.82  0.00  0.00  0.01  0.00  0.00
  HS02004817HS02004807    1.00   0.00  0.18  0.00  0.82  0.00  0.00  0.00  0.01  0.00
  HS02004817HS02004824    1.00   0.00  0.00  0.00  1.00  0.00  0.00  0.00  0.82  0.00
  HS02004824HS02004830    1.00   0.00  0.00  0.00  1.00  0.00  0.00  0.00  0.01  0.00
  HS02004830HS02004837    1.00   0.00  0.00  0.00  1.00  0.00  0.00  0.00  0.88  0.00
  HS02004837HS02004842    1.00   0.00  0.00  0.00  1.00  0.00  0.00  0.00  0.11  0.00
  HS02004842HS02004848    1.00   0.00  0.18  0.00  0.82  0.00  0.00  0.00  0.56  0.00
  HS02004848HS02004852    1.00   0.18  0.00  0.00  0.82  0.00  0.00  0.00  0.69  0.00
  HS02004852HS02004856    1.00   0.18  0.00  0.00  0.82  0.00  0.00  0.00  0.68  0.00
  HS02004856HS02004862    1.00   0.00  0.19  0.00  0.81  0.00  0.00  0.00  0.74  0.00
  HS02004862HS02004870    1.00   0.00  0.00  0.00  1.00  0.00  0.00  0.00  0.03  0.00
  HS02004870HS02004876    1.00   0.00  0.00  0.00  0.96  0.03  0.00  0.00  0.86  0.00
  HS02004876HS02004881    1.00   0.04  0.00  0.00  0.74  0.22  0.00  0.00  0.00  0.00
  HS02004881HS02006253    1.00   0.00  0.13  0.00  0.38  0.04  0.00  0.45  0.17  0.00
  HS02004901HS02004770    1.00   0.18  0.00  0.00  0.82  0.00  0.00  0.00  0.00  0.00
  WS02001211WS02001212    1.00   0.00  0.05  0.00  0.95  0.00  0.00  0.00  0.00  0.00
  WS02001212WS02001213    1.00   0.05  0.01  0.00  0.45  0.00  0.50  0.00  0.00  0.00
  WS02001213WS02003059    1.00   0.00  0.00  0.00  0.99  0.00  0.00  0.00  0.00  0.00
  WS02003059WS02003060    1.00   0.00  0.00  0.00  1.00  0.00  0.00  0.00  0.03  0.00
  WS02003060WS02003069    1.00   0.00  0.00  0.00  0.96  0.04  0.00  0.00  0.49  0.00
  WS02003066WSF200        1.00   0.14  0.00  0.00  0.00  0.86  0.00  0.00  0.69  0.00
  WS02003067WS02003066    1.00   0.14  0.00  0.00  0.86  0.00  0.00  0.00  0.00  0.00
  WS02003069WS02003072    1.00   0.00  0.00  0.00  1.00  0.00  0.00  0.00  0.66  0.00
  WS02003072WS02003073    1.00   0.00  0.00  0.00  0.00  0.00  0.00  1.00  0.00  0.00
  WS02004138WS02004139    1.00   0.00  0.01  0.00  0.94  0.02  0.00  0.02  0.98  0.00
  WS02004139WS02001211    1.00   0.00  0.00  0.00  0.99  0.00  0.00  0.00  0.00  0.00
  WS02004401WS02004402    1.00   0.05  0.00  0.00  0.95  0.00  0.00  0.00  0.00  0.00
  WS02004402WS02004403    1.00   0.05  0.00  0.00  0.94  0.00  0.00  0.00  0.00  0.00
  WS02004403WS02004404    1.00   0.00  0.06  0.00  0.94  0.00  0.00  0.00  0.00  0.00
  WS02004404WS02004405    1.00   0.00  0.00  0.00  1.00  0.00  0.00  0.00  0.01  0.00
  WS02004405WS02004406    1.00   0.00  0.00  0.00  1.00  0.00  0.00  0.00  0.00  0.00
  WS02004406WS02004407    1.00   0.00  0.09  0.00  0.90  0.00  0.00  0.00  0.00  0.00
  WS02004407WS02004409    1.00   0.10  0.00  0.00  0.88  0.03  0.00  0.00  0.83  0.00
  WS02004409WS02004410    1.00   0.10  0.00  0.00  0.90  0.00  0.00  0.00  0.00  0.00
  WS02004410WS02004411    1.00   0.10  0.00  0.00  0.90  0.00  0.00  0.00  0.00  0.00
  WS02004411WS02004412    1.00   0.10  0.00  0.00  0.89  0.00  0.00  0.00  0.00  0.00
  WS02004412WS02004413    1.00   0.11  0.00  0.00  0.88  0.01  0.00  0.00  0.00  0.00
  WS02004413WS02003067    1.00   0.11  0.02  0.00  0.00  0.00  0.86  0.00  0.00  0.00
  WS02006109WS02006110    1.00   0.00  0.01  0.00  0.97  0.00  0.02  0.00  0.00  0.00
  WS02006110WS02006113    1.00   0.01  0.02  0.00  0.97  0.00  0.00  0.00  0.00  0.00
  WS02006111WS02006112    1.00   0.04  0.00  0.00  0.95  0.01  0.00  0.01  0.78  0.00
  WS02006112WS02006115    1.00   0.04  0.01  0.00  0.94  0.00  0.01  0.00  0.00  0.00
  WS02006113WS02006111    1.00   0.03  0.00  0.00  0.24  0.73  0.00  0.00  0.07  0.00
  WS02006115WS02006116    1.00   0.05  0.00  0.00  0.93  0.00  0.00  0.02  0.00  0.00
  WS02006116WS02004401    1.00   0.05  0.00  0.00  0.95  0.00  0.00  0.00  0.00  0.00
  WS02006228WS02006109    1.00   0.00  0.00  0.00  1.00  0.00  0.00  0.00  0.00  0.00
  WS02006229WS02006228    1.00   0.00  0.00  0.00  0.99  0.00  0.00  0.01  0.00  0.00
  WS02006230WS02006229    1.00   0.00  0.00  0.00  0.98  0.00  0.00  0.02  0.03  0.00
  WS02006231WS02006230    1.00   0.00  0.00  0.00  0.47  0.00  0.52  0.00  0.00  0.00
  WS02006232WS02006231    1.00   0.00  0.00  0.00  0.99  0.00  0.00  0.00  0.00  0.00
  WS02006234WS02006232    1.00   0.00  0.00  0.00  1.00  0.00  0.00  0.00  0.02  0.00
  WS02006235WS02006234    1.00   0.00  0.00  0.00  0.96  0.00  0.04  0.00  0.00  0.00
  WS02006238WS02006235    1.00   0.00  0.00  0.00  1.00  0.00  0.00  0.00  0.00  0.00
  WS02006239WS02006238    1.00   0.00  0.00  0.00  1.00  0.00  0.00  0.00  0.09  0.00
[...]
  WS02006284WS02006280    1.00   0.18  0.00  0.00  0.14  0.01  0.00  0.66  0.00  0.00
  WS02006287WS02006284    1.00   0.17  0.02  0.00  0.40  0.41  0.00  0.00  0.64  0.00
  WSF200WS02003060        1.00   0.00  0.14  0.00  0.43  0.43  0.00  0.00  0.65  0.00
  YS02001580YS02001583    1.00   0.35  0.35  0.00  0.30  0.00  0.00  0.00  0.64  0.00
  YS02001583YS02001586    1.00   0.36  0.28  0.00  0.35  0.00  0.00  0.00  0.64  0.00
  YS02001586YS02001590    1.00   0.18  0.00  0.00  0.58  0.02  0.00  0.22  0.36  0.00
  YS02001590YS02001593    1.00   0.18  0.00  0.00  0.14  0.00  0.68  0.00  0.00  0.00
  YS02001593YS02001596    1.00   0.18  0.00  0.00  0.17  0.01  0.00  0.64  0.02  0.00
  YS02001596YS02001600    1.00   0.18  0.00  0.00  0.27  0.02  0.00  0.52  0.05  0.00
  YS02001600YS02001601    1.00   0.18  0.00  0.00  0.82  0.00  0.00  0.00  0.61  0.00
  YS02001601YS02001602    1.00   0.18  0.00  0.00  0.82  0.00  0.00  0.00  0.00  0.00
  YS02001602YS02001605    1.00   0.18  0.00  0.00  0.82  0.00  0.00  0.00  0.00  0.00
  YS02001605YS02001607    1.00   0.18  0.00  0.00  0.82  0.00  0.00  0.00  0.00  0.00
  YS02001607YS02001610    1.00   0.18  0.00  0.00  0.82  0.00  0.00  0.00  0.01  0.00
  YS02001610YS02001613    1.00   0.18  0.00  0.00  0.82  0.00  0.00  0.00  0.00  0.00
  YS02001613YS02001616    1.00   0.18  0.00  0.00  0.82  0.00  0.00  0.00  0.00  0.00
  YS02001616YS02001619    1.00   0.18  0.00  0.00  0.82  0.00  0.00  0.00  0.00  0.00
  YS02001619YS02001622    1.00   0.18  0.00  0.00  0.82  0.00  0.00  0.00  0.33  0.00
  YS02001622YS02001625    1.00   0.18  0.00  0.00  0.82  0.00  0.00  0.00  0.04  0.00
  YS02001625YS02001629    1.00   0.18  0.02  0.00  0.20  0.00  0.60  0.00  0.00  0.00
  YS02001629YS02163301    1.00   0.19  0.00  0.00  0.81  0.00  0.00  0.00  0.00  0.00
  YS02001633YS02163601    1.00   0.00  0.00  0.00  1.00  0.00  0.00  0.00  0.15  0.00
  YS02001641YS02001644    1.00   0.00  0.00  0.00  1.00  0.00  0.00  0.00  0.00  0.00
  YS02001644YS02001647    1.00   0.00  0.19  0.00  0.80  0.00  0.00  0.00  0.00  0.00
  YS02001647YS02001649    1.00   0.00  0.19  0.00  0.41  0.39  0.00  0.00  0.57  0.00
  YS02001649YS02001757    1.00   0.00  0.00  0.00  0.58  0.42  0.00  0.00  0.52  0.00
  YS02001652YS02001649    1.00   0.00  0.00  0.00  0.98  0.02  0.00  0.00  0.76  0.00
  YS02001655YS02001652    1.00   0.00  0.00  0.00  0.22  0.02  0.00  0.76  0.06  0.00
  YS02001658YS02001655    1.00   0.00  0.18  0.00  0.46  0.36  0.00  0.00  0.72  0.00
  YS02001661YS02001658    1.00   0.18  0.00  0.00  0.32  0.50  0.00  0.00  0.72  0.00
  YS02001664YS02001661    1.00   0.18  0.00  0.00  0.64  0.18  0.00  0.00  0.85  0.00
  YS02001745YS02001748    1.00   0.00  0.00  0.00  0.07  0.01  0.00  0.91  0.03  0.00
  YS02001748YS02001751    1.00   0.00  0.00  0.00  0.73  0.27  0.00  0.00  0.77  0.00
  YS02001751YS02001754    1.00   0.00  0.00  0.00  0.17  0.01  0.00  0.82  0.03  0.00
  YS02001754YS02001757    1.00   0.00  0.00  0.00  1.00  0.00  0.00  0.00  0.85  0.00
  YS02001757CaochengTiaoxuchi    1.00   0.00  0.00  0.00  0.89  0.11  0.00  0.00  0.82  0.00
  YS02001759YS02001757    1.00   0.00  0.00  0.00  1.00  0.00  0.00  0.00  0.61  0.00
  YS02001762YS02001759    1.00   0.00  0.00  0.00  1.00  0.00  0.00  0.00  0.04  0.00
  YS02001765YS02001762    1.00   0.00  0.00  0.00  1.00  0.00  0.00  0.00  0.73  0.00
  YS02001767YS02001765    1.00   0.00  0.00  0.00  1.00  0.00  0.00  0.00  0.00  0.00
  YS02001770YS02001767    1.00   0.00  0.00  0.00  1.00  0.00  0.00  0.00  0.00  0.00
  YS02001774YS02001770    1.00   0.00  0.18  0.00  0.68  0.00  0.14  0.00  0.03  0.00
  YS02001779YS02001774    1.00   0.00  0.00  0.00  1.00  0.00  0.00  0.00  0.78  0.00
  YS02001783YS02001784    1.00   0.00  0.20  0.00  0.80  0.00  0.00  0.00  0.57  0.00
  YS02001784YS02001785    1.00   0.00  0.00  0.00  1.00  0.00  0.00  0.00  0.17  0.00
  YS02001786YS02001788    1.00   0.00  0.00  0.00  0.64  0.36  0.00  0.00  0.00  0.00
  YS02001788YS02001790    1.00   0.00  0.00  0.00  0.23  0.77  0.00  0.00  0.81  0.00
  YS02001790YS02001791    1.00   0.00  0.00  0.00  0.02  0.98  0.00  0.00  0.16  0.00
  YS02001791YS02001793    1.00   0.00  0.00  0.00  0.00  1.00  0.00  0.00  0.01  0.00
  YS02001793JiankangQianchi    1.00   0.00  0.00  0.00  0.97  0.03  0.00  0.00  0.97  0.00
  YS02001882YS02001884    1.00   0.19  0.00  0.00  0.81  0.00  0.00  0.00  0.00  0.00
  YS02001884YS02001887    1.00   0.14  0.03  0.00  0.83  0.00  0.00  0.00  0.00  0.00
  YS02001887YS02001890    1.00   0.00  0.00  0.00  0.93  0.00  0.07  0.00  0.00  0.00
  YS02001890YS02001895    1.00   0.00  0.19  0.00  0.81  0.00  0.00  0.00  0.00  0.00
  YS02001895YS02001898    1.00   0.19  0.00  0.00  0.79  0.00  0.01  0.00  0.00  0.00
  YS02001898YS02001901    1.00   0.19  0.00  0.00  0.81  0.00  0.00  0.00  0.01  0.00
  YS02001901YS02001904    1.00   0.19  0.00  0.00  0.81  0.00  0.00  0.00  0.00  0.00
  YS02001904YS02001907    1.00   0.00  0.19  0.00  0.81  0.00  0.00  0.00  0.00  0.00
  YS02001907YS02006553    1.00   0.00  0.04  0.00  0.95  0.00  0.00  0.00  0.00  0.00
  YS02001910YS02001907    1.00   0.00  0.00  0.00  0.94  0.01  0.00  0.05  0.12  0.00
  YS02001915YS02001910    1.00   0.00  0.00  0.00  0.95  0.05  0.00  0.00  0.16  0.00
  YS02001918YS02001915    1.00   0.00  0.00  0.00  0.95  0.05  0.00  0.00  0.76  0.00
  YS02001920YS02001918    1.00   0.00  0.00  0.00  1.00  0.00  0.00  0.00  0.00  0.00
  YS02001923YS02001920    1.00   0.00  0.00  0.00  1.00  0.00  0.00  0.00  0.93  0.00
  YS02001926YS02001923    1.00   0.00  0.15  0.00  0.06  0.00  0.79  0.00  0.00  0.00
  YS02001929YS02001926    1.00   0.00  0.18  0.00  0.82  0.00  0.00  0.00  0.83  0.00
  YS02006553YS02006556    1.00   0.01  0.00  0.00  0.99  0.00  0.00  0.00  0.03  0.00
  YS02006556YS02006558    1.00   0.00  0.00  0.00  1.00  0.00  0.00  0.00  0.00  0.00
  YS02006558YS02006561    1.00   0.20  0.00  0.00  0.06  0.74  0.00  0.00  0.18  0.00
  YS02006561YS02001783    1.00   0.20  0.00  0.00  0.10  0.70  0.00  0.00  0.70  0.00
  YS02163301YS02001633    1.00   0.00  0.19  0.00  0.81  0.00  0.00  0.00  0.00  0.00
  YS02163601YS02164001    1.00   0.00  0.16  0.00  0.84  0.00  0.00  0.00  0.00  0.00
  YS02164001YS02001641    1.00   0.00  0.15  0.00  0.84  0.00  0.00  0.00  0.05  0.00
  YSB1154YSB6556          1.00   0.18  0.00  0.00  0.82  0.00  0.00  0.00  0.02  0.00
  YSB1171HS02004479       1.00   0.09  0.00  0.00  0.86  0.00  0.00  0.04  0.10  0.00
  YSB1174YSB1171          1.00   0.13  0.04  0.00  0.84  0.00  0.00  0.00  0.00  0.00
  YSB6556YSB1171          1.00   0.10  0.08  0.00  0.82  0.00  0.00  0.00  0.00  0.00
  
  
  *************************
  Conduit Surcharge Summary
  *************************
  
  ----------------------------------------------------------------------------
                                                           Hours        Hours 
                         --------- Hours Full --------   Above Full   Capacity
  Conduit                Both Ends  Upstream  Dnstream   Normal Flow   Limited
  ----------------------------------------------------------------------------
  HS02004478WS02006287        0.48      0.48      0.66      0.01         0.01
  HS02004479HS02004480        0.66      0.66      0.69      0.01         0.01
  HS02004480HS02004478        0.58      0.65      0.58      1.71         0.58
  HS02004770HS02004777        0.56      0.56      0.56      0.11         0.06
  HS02004777HS02004785        0.51      0.51      0.56      0.01         0.01
  HS02004785HS02004788        0.50      0.51      0.50      1.39         0.44
  HS02004788HS02004792        0.50      0.50      0.62      0.01         0.01
  HS02004792HS02004799        0.62      0.62      0.76      0.01         0.01
  HS02004799HS02004480        0.65      0.65      0.76      0.85         0.01
  HS02004802HS02004478        0.60      0.60      0.67      0.13         0.01
  HS02004807HS02004802        0.64      0.64      0.66      0.26         0.27
  HS02004817HS02004807        0.64      0.64      1.20      0.01         0.01
  HS02004817HS02004824        0.50      0.50      1.20      0.01         0.01
  HS02004824HS02004830        0.48      0.48      0.50      0.01         0.01
  HS02004830HS02004837        0.44      0.44      0.48      0.01         0.01
  HS02004837HS02004842        0.44      0.44      0.57      0.01         0.01
  HS02004842HS02004848        0.39      0.39      0.57      0.01         0.01
  HS02004848HS02004852        0.39      0.39      0.42      0.03         0.01
  HS02004852HS02004856        0.42      0.42      0.44      0.02         0.01
  HS02004856HS02004862        0.41      0.41      0.44      0.01         0.01
  HS02004862HS02004870        0.44      0.44      0.46      0.23         0.21
  HS02004870HS02004876        0.46      0.46      0.52      0.01         0.01
  HS02004876HS02004881        0.50      0.52      0.50      1.42         0.50
  HS02004881HS02006253        0.50      0.50      1.44      0.01         0.01
  HS02004901HS02004770        0.56      0.56      0.56      0.01         0.01
  WS02003072WS02003073        0.01      0.01      0.01      2.24         0.01
  WS02004401WS02004402        1.49      1.49      1.52      1.30         1.29
  WS02004402WS02004403        1.52      1.52      1.53      1.49         1.47
  WS02004403WS02004404        1.53      1.53      1.64      0.01         0.03
  WS02004404WS02004405        1.63      1.64      1.63      3.19         1.63
  WS02004405WS02004406        1.60      1.63      1.60      1.78         1.60
  WS02004406WS02004407        0.01      0.01      1.60      0.01         0.01
  WS02004407WS02004409        0.01      0.01      1.01      0.01         0.01
  WS02004409WS02004410        0.96      1.01      0.96      1.37         0.96
  WS02004410WS02004411        0.88      0.96      0.88      1.45         0.88
  WS02004411WS02004412        0.79      0.88      0.79      1.48         0.79
  WS02004412WS02004413        0.79      0.79      1.23      0.01         0.01
  WS02004413WS02003067        0.01      0.01      1.23      0.01         0.01
  WS02006109WS02006110        1.75      1.75      2.06      1.75         0.01
  WS02006110WS02006113        1.22      1.22      2.03      0.26         0.01
  WS02006111WS02006112        1.22      1.22      2.18      0.01         0.01
  WS02006112WS02006115        1.38      1.38      1.82      0.01         0.01
  WS02006113WS02006111        1.22      1.22      1.22      1.28         1.21
  WS02006115WS02006116        1.40      1.41      1.41      1.36         1.35
  WS02006116WS02004401        1.48      1.48      1.49      1.46         1.45
  WS02006228WS02006109        2.01      2.06      2.01      2.28         2.00
  WS02006229WS02006228        2.00      2.02      2.00      2.15         2.00
  WS02006230WS02006229        2.11      2.11      2.11      3.31         0.97
  WS02006231WS02006230        1.61      1.61      1.63      2.56         1.05
  WS02006232WS02006231        1.60      1.60      1.78      0.01         0.15
  WS02006234WS02006232        1.63      1.63      1.78      0.01         0.01
  WS02006235WS02006234        1.60      1.60      1.63      2.34         1.00
  WS02006238WS02006235        1.64      1.64      1.68      0.01         0.33
  WS02006239WS02006238        1.65      1.65      1.66      1.01         0.19
  WS02006240WS02006239        1.60      1.61      1.61      1.00         0.17
  WS02006242WS02006240        1.59      1.59      1.66      1.36         0.89
  WS02006243WS02006242        1.54      1.54      1.63      0.01         0.01
  WS02006245WS02006243        1.52      1.52      1.53      0.15         0.12
  WS02006247WS02006245        1.52      1.53      1.52      2.04         0.37
  WS02006248WS02006247        1.51      1.51      1.52      0.01         0.01
  WS02006249WS02006248        1.51      1.51      1.51      1.03         0.01
  WS02006251WS02006249        1.50      1.50      1.51      1.46         1.40
  WS02006252WS02006251        1.54      1.54      1.61      0.91         0.07
  WS02006253WS02006251        1.50      1.50      1.51      0.77         0.02
  WS02006256WS02006235        2.68      2.72      7.14      0.44         0.01
  WS02006280WS02006229        0.79      0.79      0.91      0.01         0.01
  WS02006284WS02006280        0.68      0.68      0.76      0.01         0.01
  WS02006287WS02006284        0.58      0.58      0.70      0.30         0.29
  YS02001580YS02001583        0.55      0.56      0.57      0.01         0.01
  YS02001583YS02001586        0.56      0.56      0.64      0.01         0.01
  YS02001586YS02001590        0.65      0.65      0.71      0.01         0.01
  YS02001590YS02001593        0.71      0.71      0.73      0.74         0.01
  YS02001593YS02001596        0.73      0.73      0.82      0.01         0.01
  YS02001596YS02001600        0.87      0.87      0.98      0.01         0.01
  YS02001600YS02001601        1.05      1.05      1.33      0.01         0.01
  YS02001601YS02001602        1.21      1.21      1.37      1.00         0.01
  YS02001602YS02001605        1.16      1.16      1.21      2.22         0.01
  YS02001605YS02001607        1.11      1.16      1.11      1.29         1.11
  YS02001607YS02001610        0.66      0.66      0.68      0.01         0.01
  YS02001610YS02001613        0.65      0.65      0.68      0.01         0.01
  YS02001613YS02001616        0.62      0.62      0.65      0.01         0.01
  YS02001616YS02001619        0.60      0.60      0.62      0.01         0.03
  YS02001619YS02001622        0.60      0.60      0.60      0.75         0.58
  YS02001622YS02001625        0.60      0.60      0.77      0.01         0.01
  YS02001625YS02001629        0.54      0.54      0.77      0.01         0.01
  YS02001629YS02163301        0.76      0.76      0.76      0.29         0.27
  YS02001633YS02163601        0.78      0.78      0.81      0.42         0.42
  YS02001641YS02001644        0.65      0.69      0.65      1.42         0.64
  YS02001644YS02001647        0.43      0.43      0.65      0.05         0.01
  YS02001647YS02001649        0.43      0.43      0.50      0.01         0.01
  YS02001649YS02001757        0.50      0.50      0.53      0.30         0.21
  YS02001652YS02001649        0.37      0.37      0.50      0.01         0.01
  YS02001655YS02001652        0.26      0.26      0.36      0.01         0.01
  YS02001658YS02001655        0.16      0.16      0.26      0.01         0.01
  YS02001661YS02001658        0.03      0.03      0.16      0.01         0.01
  YS02001664YS02001661        0.01      0.01      0.07      0.01         0.01
  YS02001745YS02001748        0.01      0.01      0.09      0.01         0.01
  YS02001748YS02001751        0.14      0.14      0.19      0.01         0.01
  YS02001751YS02001754        0.19      0.19      0.27      0.01         0.01
  YS02001754YS02001757        0.30      0.30      0.53      0.01         0.01
  YS02001757CaochengTiaoxuchi        0.42      0.53      0.93      0.39         0.22
  YS02001759YS02001757        0.45      0.45      0.53      0.03         0.05
  YS02001762YS02001759        0.42      0.42      0.45      0.01         0.02
  YS02001765YS02001762        0.40      0.40      0.42      0.01         0.01
  YS02001767YS02001765        0.37      0.37      0.40      0.01         0.03
  YS02001770YS02001767        0.37      0.38      0.37      0.48         0.30
  YS02001774YS02001770        0.36      0.36      0.42      0.01         0.01
  YS02001779YS02001774        0.28      0.28      0.42      0.01         0.01
  YS02001783YS02001784        0.43      0.45      0.43      0.60         0.43
  YS02001784YS02001785        0.33      0.43      0.33      0.84         0.33
  YS02001786YS02001788        0.01      0.33      0.01      0.72         0.01
  YS02001790YS02001791        0.01      0.01      0.01      0.41         0.01
  YS02001793JiankangQianchi        0.01      0.01      6.69      0.01         0.01
  YS02001882YS02001884        0.40      0.40      0.41      0.01         0.01
  YS02001884YS02001887        0.43      0.43      0.44      0.01         0.01
  YS02001887YS02001890        0.46      0.46      0.47      0.10         0.01
  YS02001890YS02001895        0.39      0.39      0.48      0.01         0.01
  YS02001895YS02001898        0.38      0.38      0.39      0.01         0.01
  YS02001898YS02001901        0.39      0.39      0.43      0.01         0.01
  YS02001901YS02001904        0.42      0.42      0.43      0.01         0.01
  YS02001904YS02001907        0.42      0.42      0.70      0.01         0.01
  YS02001907YS02006553        0.84      0.84      0.91      0.01         0.01
  YS02001910YS02001907        0.48      0.48      0.68      0.01         0.01
  YS02001915YS02001910        0.40      0.40      0.48      0.01         0.01
  YS02001918YS02001915        0.32      0.32      0.40      0.01         0.01
  YS02001920YS02001918        0.32      0.32      0.33      0.01         0.01
  YS02001923YS02001920        0.28      0.28      0.33      0.01         0.01
  YS02001926YS02001923        0.08      0.08      0.11      0.01         0.01
  YS02001929YS02001926        0.01      0.01      0.11      0.01         0.01
  YS02006553YS02006556        0.58      0.58      0.70      0.01         0.01
  YS02006556YS02006558        0.64      0.64      0.71      0.01         0.01
  YS02006558YS02006561        0.35      0.56      0.35      0.79         0.35
  YS02006561YS02001783        0.28      0.28      0.45      0.01         0.01
  YS02163301YS02001633        0.76      0.76      0.81      0.01         0.01
  YS02163601YS02164001        0.70      0.70      0.81      0.18         0.01
  YS02164001YS02001641        0.69      0.70      0.69      0.69         0.53
  YSB1154YSB6556              0.72      0.72      0.87      0.01         0.01
  YSB1171HS02004479           0.61      0.61      0.88      0.01         0.01
  YSB1174YSB1171              0.79      0.79      1.13      0.01         0.01
  YSB6556YSB1171              0.72      0.72      1.27      0.01         0.01
  
  
  ***************
  Pumping Summary
  ***************
  
  ---------------------------------------------------------------------------------------------------------
                                                  Min       Avg       Max     Total     Power    % Time Off
                        Percent   Number of      Flow      Flow      Flow    Volume     Usage    Pump Curve
  Pump                 Utilized   Start-Ups       LPS       LPS       LPS  10^6 ltr     Kw-hr    Low   High
  ---------------------------------------------------------------------------------------------------------
  CC-R1                   22.44          26      0.00    683.00    683.00     4.415     77.88    0.0   48.0
  CC-R2                   20.64          25      0.00    683.00    683.00     4.060     71.23    0.0   54.6
  CC-S1                   23.74          36      0.00    200.00    200.00     1.368      9.60    0.0    0.0
  CC-S2                   19.10          32      0.00    200.00    200.00     1.100      8.00    0.0    0.0
  JK-R1                    5.61          16      0.00   1000.00   1000.00     1.615     15.58    0.0    0.0
  JK-R2                    4.69          20      0.00   1000.00   1000.00     1.350     12.72    0.0    0.0
  JK-S                     9.43          31      0.00    300.00    300.00     0.814     14.71    0.0    0.0
  XR-1                    97.91           2      0.00     95.00     95.00     2.679      9.63    0.0    0.0
  XR-2                    93.94           2      0.00     95.00     95.00     2.570      8.79    0.0    0.0
  XR-3                     0.00           1      0.00     95.00     95.00     0.000      0.00    0.0    0.0
  XR-4                     0.00           1      0.00     95.00     95.00     0.000      0.00    0.0    0.0
  

  Analysis begun on:  Thu Jun 15 19:59:26 2023
  Analysis ended on:  Thu Jun 15 19:59:37 2023
  Total elapsed time: 00:00:11