
  OWA STORM WATER MANAGEMENT MODEL - VERSION v5.1.14 (OWA 2022-07-31)
  --------------------------------------------------------------

  WARNING 04: minimum elevation drop used for Conduit WS02004404WS02004405
  WARNING 03: negative offset ignored for Link YS02001904YS02001907
  
  *********************************************************
  NOTE: The summary statistics displayed in this report are
  based on results found at every computational time step,  
  not just on results from each reporting time step.
  *********************************************************
  
  ****************
  Analysis Options
  ****************
  Flow Units ............... LPS
  Process Models:
    Rainfall/Runoff ........ YES
    RDII ................... NO
    Snowmelt ............... NO
    Groundwater ............ NO
    Flow Routing ........... YES
    Ponding Allowed ........ NO
    Water Quality .......... NO
  Infiltration Method ...... HORTON
  Flow Routing Method ...... DYNWAVE
  Surcharge Method ......... EXTRAN
  Starting Date ............ 08/28/2015 08:00:00
  Ending Date .............. 08/28/2015 16:00:00
  Antecedent Dry Days ...... 8.0
  Report Time Step ......... 00:01:00
  Wet Time Step ............ 00:01:00
  Dry Time Step ............ 00:01:00
  Routing Time Step ........ 30.00 sec
  Variable Time Step ....... YES
  Maximum Trials ........... 8
  Number of Threads ........ 2
  Head Tolerance ........... 0.001500 m
  
  
  **************************        Volume         Depth
  Runoff Quantity Continuity     hectare-m            mm
  **************************     ---------       -------
  Initial LID Storage ......         0.072         1.184
  Total Precipitation ......         3.186        52.586
  Evaporation Loss .........         0.000         0.000
  Infiltration Loss ........         0.201         3.316
  Surface Runoff ...........         2.401        39.630
  Final Storage ............         0.657        10.848
  Continuity Error (%) .....        -0.042
  
  
  **************************        Volume        Volume
  Flow Routing Continuity        hectare-m      10^6 ltr
  **************************     ---------     ---------
  Dry Weather Inflow .......         0.630         6.296
  Wet Weather Inflow .......         2.401        24.006
  Groundwater Inflow .......         0.000         0.000
  RDII Inflow ..............         0.000         0.000
  External Inflow ..........         0.105         1.045
  External Outflow .........         2.219        22.193
  Flooding Loss ............         0.906         9.055
  Evaporation Loss .........         0.000         0.000
  Exfiltration Loss ........         0.000         0.000
  Initial Stored Volume ....         0.303         3.031
  Final Stored Volume ......         0.321         3.209
  Continuity Error (%) .....        -0.231
  
  
  *************************
  Highest Continuity Errors
  *************************
  Node YS02001884 (5.27%)
  Node YS02001583 (-4.70%)
  Node WS02006256 (-2.78%)
  Node HS02004842 (1.94%)
  Node YS02001774 (1.82%)
  
  
  ***************************
  Time-Step Critical Elements
  ***************************
  Link WS02006280WS02006229 (44.90%)
  Link WS02006252WS02006251 (30.36%)
  Link WS02006238WS02006235 (6.28%)
  Link YS02001791YS02001793 (4.27%)
  Link WS02003066WSF200 (2.65%)
  
  
  ********************************
  Highest Flow Instability Indexes
  ********************************
  Link WS02006113WS02006111 (26)
  Link WS02006256WS02006235 (20)
  Link WS02004404WS02004405 (17)
  Link WS02006252WS02006251 (17)
  Link WS02006238WS02006235 (16)
  
  
  *************************
  Routing Time Step Summary
  *************************
  Minimum Time Step           :     0.00 sec
  Average Time Step           :     2.24 sec
  Maximum Time Step           :     6.46 sec
  Percent in Steady State     :    -0.00
  Average Iterations per Step :     3.26
  Percent Not Converging      :    12.68
  
  
  ***************************
  Subcatchment Runoff Summary
  ***************************
  
  ------------------------------------------------------------------------------------------------------------------------------
                            Total      Total      Total      Total     Imperv       Perv      Total       Total     Peak  Runoff
                           Precip      Runon       Evap      Infil     Runoff     Runoff     Runoff      Runoff   Runoff   Coeff
  Subcatchment                 mm         mm         mm         mm         mm         mm         mm    10^6 ltr      LPS
  ------------------------------------------------------------------------------------------------------------------------------
  sub0                      52.59       0.00       0.00       0.98      47.66       2.70      50.35        0.04    31.46   0.958
  sub1                      52.59       0.00       0.00       1.49      40.83       3.70      44.53        0.30   192.52   0.847
  sub2                      52.59       0.00       0.00       6.77      29.85      11.25      41.10        0.38   202.57   0.781
  sub3                      52.59       0.00       0.00       7.24      29.55      10.62      40.17        0.90   433.72   0.764
  sub4                      52.59       0.00       0.00       1.63      40.20       3.49      43.69        0.91   468.62   0.831
  sub5                      52.59       0.00       0.00       0.85      39.50       2.21      41.71        0.47   310.88   0.793
  sub7                      52.59       0.00       0.00       1.00      36.11       2.67      38.77        0.13    95.60   0.737
  sub8                      52.59       0.00       0.00       0.98      35.09       2.58      37.67        0.24   171.27   0.716
  sub9                      52.59       0.00       0.00       0.95      34.01       2.50      36.52        0.18   124.76   0.694
  sub10                     52.59       0.00       0.00       0.95      38.27       2.47      40.74        0.45   302.21   0.775
  sub11                     52.59       0.00       0.00       0.87      35.57       2.31      37.88        0.44   316.16   0.720
  sub12                     52.59       0.00       0.00       1.52      36.16       4.03      40.19        0.35   269.43   0.764
  sub14                     52.59       0.00       0.00       0.94      33.69       2.48      36.17        0.34   243.51   0.688
  sub15                     52.59       0.00       0.00       4.29      30.28       9.04      39.32        0.68   430.04   0.748
  sub16                     52.59       0.00       0.00       4.55      29.54      10.39      39.93        0.42   293.28   0.759
  sub17                     52.59       0.00       0.00       4.87      32.60      10.88      43.48        0.37   253.86   0.827
  sub22                     52.59       0.00       0.00       7.61      28.27      14.29      42.56        2.69  1589.53   0.809
  sub23                     52.59       0.00       0.00       5.72      29.11      11.84      40.95        1.95  1245.33   0.779
  sub60                     52.59       0.00       0.00       1.35      34.79       3.52      38.31        0.50   365.36   0.728
  sub61                     52.59       0.00       0.00       2.08      34.76       5.23      39.99        0.73   532.45   0.760
  sub62                     52.59       0.00       0.00       0.92      37.05       2.39      39.44        1.08   721.50   0.750
  sub63                     52.59       0.00       0.00       3.81      29.77       8.67      38.44        0.87   598.89   0.731
  sub64                     52.59       0.00       0.00       1.83      33.89       4.32      38.21        0.92   589.32   0.727
  sub65                     52.59       0.00       0.00       1.68      36.58       3.94      40.52        1.12   688.33   0.771
  sub66                     52.59       0.00       0.00       4.46      28.78       7.63      36.41        1.70   881.92   0.692
  sub67                     52.59       0.00       0.00       0.91      37.99       2.48      40.47        0.75   569.30   0.770
  sub68                     52.59       0.00       0.00       1.59      33.55       4.01      37.56        1.03   723.10   0.714
  sub69                     52.59       0.00       0.00       1.45      35.34       4.80      40.14        1.49   890.63   0.763
  sub70                     52.59       0.00       0.00       4.89      28.31       9.74      38.05        1.10   509.51   0.724
  sub71                     52.59       0.00       0.00       0.85      33.66       2.16      35.81        0.94   596.03   0.681
  sub72                     52.59       0.00       0.00       0.81      36.35       2.01      38.35        0.53   306.57   0.729
  

  ***********************
  LID Performance Summary
  ***********************

  --------------------------------------------------------------------------------------------------------------------
                                         Total      Evap     Infil   Surface    Drain    Initial     Final  Continuity
                                        Inflow      Loss      Loss   Outflow   Outflow   Storage   Storage       Error
  Subcatchment      LID Control             mm        mm        mm        mm        mm        mm        mm           %
  --------------------------------------------------------------------------------------------------------------------
  sub1              GreenRoof            52.59      0.00      0.00      0.00      0.00      7.05     59.71       -0.13
  sub2              GreenRoof            52.59      0.00      0.00      0.00      0.00      7.05     59.71       -0.13
  sub3              GreenRoof            52.59      0.00      0.00      0.00      0.00      7.05     59.71       -0.13
  sub4              GreenRoof            52.59      0.00      0.00      0.00      0.00      7.05     59.71       -0.13
  sub5              GreenRoof            52.59      0.00      0.00      0.00      0.00      7.05     59.71       -0.13
  sub7              GreenRoof            52.59      0.00      0.00      0.00      0.00      7.05     59.71       -0.13
  sub8              GreenRoof            52.59      0.00      0.00      0.00      0.00      7.05     59.71       -0.13
  sub9              GreenRoof            52.59      0.00      0.00      0.00      0.00      7.05     59.71       -0.13
  sub10             GreenRoof            52.59      0.00      0.00      0.00      0.00      7.05     59.71       -0.13
  sub11             GreenRoof            52.59      0.00      0.00      0.00      0.00      7.05     59.71       -0.13
  sub12             GreenRoof            52.59      0.00      0.00      0.00      0.00      7.05     59.71       -0.13
  sub14             GreenRoof            52.59      0.00      0.00      0.00      0.00      7.05     59.71       -0.13
  sub15             GreenRoof            52.59      0.00      0.00      0.00      0.00      7.05     59.71       -0.13
  sub16             GreenRoof            52.59      0.00      0.00      0.00      0.00      7.05     59.71       -0.13
  sub17             GreenRoof            52.59      0.00      0.00      0.00      0.00      7.05     59.71       -0.13
  sub22             GreenRoof            52.59      0.00      0.00      0.00      0.00      7.05     59.71       -0.13
  sub23             GreenRoof            52.59      0.00      0.00      0.00      0.00      7.05     59.71       -0.13
  sub60             GreenRoof            52.59      0.00      0.00      0.00      0.00      7.05     59.71       -0.13
  sub61             GreenRoof            52.59      0.00      0.00      0.00      0.00      7.05     59.71       -0.13
  sub62             GreenRoof            52.59      0.00      0.00      0.00      0.00      7.05     59.71       -0.13
  sub63             GreenRoof            52.59      0.00      0.00      0.00      0.00      7.05     59.71       -0.13
  sub64             GreenRoof            52.59      0.00      0.00      0.00      0.00      7.05     59.71       -0.13
  sub65             GreenRoof            52.59      0.00      0.00      0.00      0.00      7.05     59.71       -0.13
  sub66             GreenRoof            52.59      0.00      0.00      0.00      0.00      7.05     59.71       -0.13
  sub67             GreenRoof            52.59      0.00      0.00      0.00      0.00      7.05     59.71       -0.13
  sub68             GreenRoof            52.59      0.00      0.00      0.00      0.00      7.05     59.71       -0.13
  sub69             GreenRoof            52.59      0.00      0.00      0.00      0.00      7.05     59.71       -0.13
  sub70             GreenRoof            52.59      0.00      0.00      0.00      0.00      7.05     59.71       -0.13
  sub71             GreenRoof            52.59      0.00      0.00      0.00      0.00      7.05     59.71       -0.13
  sub72             GreenRoof            52.59      0.00      0.00      0.00      0.00      7.05     59.71       -0.13
  
  ******************
  Node Depth Summary
  ******************
  
  ---------------------------------------------------------------------------------
                                 Average  Maximum  Maximum  Time of Max    Reported
                                   Depth    Depth      HGL   Occurrence   Max Depth
  Node                 Type       Meters   Meters   Meters  days hr:min      Meters
  ---------------------------------------------------------------------------------
  HS02004478           JUNCTION     0.19     1.60    10.83     0  02:13        1.60
  HS02004479           JUNCTION     0.27     1.70    10.90     0  02:10        1.66
  HS02004480           JUNCTION     0.24     1.68    10.92     0  02:10        1.66
  HS02004770           JUNCTION     0.24     1.42    11.25     0  02:07        1.42
  HS02004777           JUNCTION     0.26     1.48    11.28     0  02:07        1.48
  HS02004785           JUNCTION     0.17     1.49    11.39     0  02:07        1.46
  HS02004788           JUNCTION     0.13     1.42    11.32     0  02:07        1.42
  HS02004792           JUNCTION     0.18     1.60    11.12     0  02:06        1.60
  HS02004799           JUNCTION     0.30     1.76    10.97     0  02:10        1.76
  HS02004802           JUNCTION     0.29     1.84    10.97     0  02:13        1.84
  HS02004807           JUNCTION     0.26     1.92    11.09     0  02:10        1.92
  HS02004817           JUNCTION     0.54     2.44    11.29     0  02:13        2.44
  HS02004824           JUNCTION     0.13     2.01    11.41     0  02:13        2.01
  HS02004830           JUNCTION     0.14     2.03    11.50     0  02:13        2.03
  HS02004837           JUNCTION     0.11     2.04    11.62     0  02:13        2.04
  HS02004842           JUNCTION     0.39     2.22    11.49     0  02:10        2.22
  HS02004848           JUNCTION     0.09     2.07    11.67     0  02:10        2.07
  HS02004852           JUNCTION     0.10     2.12    11.63     0  02:10        2.12
  HS02004856           JUNCTION     0.15     2.07    11.50     0  02:10        2.07
  HS02004862           JUNCTION     0.11     2.00    11.38     0  02:10        2.00
  HS02004870           JUNCTION     0.10     2.10    11.39     0  02:10        2.06
  HS02004876           JUNCTION     0.15     2.20    11.23     0  02:13        2.20
  HS02004881           JUNCTION     0.10     1.93    10.96     0  02:13        1.93
  HS02004901           JUNCTION     0.25     1.42    11.24     0  02:07        1.42
  WS02001211           JUNCTION     0.61     0.81     5.65     0  02:17        0.81
  WS02001212           JUNCTION     0.35     0.57     5.63     0  02:17        0.57
  WS02001213           JUNCTION     0.56     0.86     5.63     0  02:17        0.86
  WS02003059           JUNCTION     0.62     0.93     5.62     0  02:16        0.93
  WS02003060           JUNCTION     0.35     0.68     5.61     0  02:15        0.68
  WS02003066           JUNCTION     0.21     0.45     6.01     0  02:13        0.45
  WS02003067           JUNCTION     0.50     0.89     6.21     0  02:13        0.89
  WS02003069           JUNCTION     0.40     0.77     5.36     0  02:16        0.77
  WS02003072           JUNCTION     0.45     0.81     5.18     0  02:16        0.81
  WS02003073           JUNCTION     0.27     0.51     4.58     0  02:16        0.51
  WS02004138           JUNCTION     0.13     0.14     7.39     0  00:31        0.14
  WS02004139           JUNCTION     0.55     0.74     5.65     0  02:16        0.74
  WS02004401           JUNCTION     0.70     2.06     8.06     0  02:32        1.96
  WS02004402           JUNCTION     0.72     2.02     7.98     0  02:32        1.83
  WS02004403           JUNCTION     0.73     1.95     7.88     0  02:32        1.77
  WS02004404           JUNCTION     0.79     1.94     7.79     0  02:32        1.82
  WS02004405           JUNCTION     0.78     1.85     7.70     0  02:32        1.75
  WS02004406           JUNCTION     0.77     1.61     7.44     0  02:32        1.56
  WS02004407           JUNCTION     0.23     0.91     7.23     0  02:13        0.90
  WS02004409           JUNCTION     0.48     1.38     7.15     0  02:13        1.38
  WS02004410           JUNCTION     0.49     1.29     7.01     0  02:13        1.28
  WS02004411           JUNCTION     0.49     1.20     6.88     0  02:13        1.19
  WS02004412           JUNCTION     0.50     1.11     6.75     0  02:13        1.10
  WS02004413           JUNCTION     0.63     1.15     6.62     0  02:13        1.14
  WS02006109           JUNCTION     0.91     2.64     9.26     0  02:08        2.64
  WS02006110           JUNCTION     0.86     2.53     9.11     0  02:13        2.53
  WS02006111           JUNCTION     0.38     2.00     8.71     0  02:13        2.00
  WS02006112           JUNCTION     0.91     2.66     8.55     0  02:13        2.66
  WS02006113           JUNCTION     0.45     2.26     9.15     0  01:56        1.99
  WS02006115           JUNCTION     0.63     2.07     8.21     0  02:13        2.02
  WS02006116           JUNCTION     0.70     2.10     8.14     0  02:32        2.03
  WS02006228           JUNCTION     0.95     3.03     9.68     0  02:10        3.03
  WS02006229           JUNCTION     0.96     3.24     9.94     0  02:10        3.19
  WS02006230           JUNCTION     0.89     2.65     9.39     0  01:57        2.65
  WS02006231           JUNCTION     0.63     2.24     9.36     0  01:57        2.24
  WS02006232           JUNCTION     0.72     2.18     9.22     0  01:57        2.18
  WS02006234           JUNCTION     0.61     1.96     9.12     0  01:57        1.96
  WS02006235           JUNCTION     0.62     2.00     9.16     0  01:57        2.00
  WS02006238           JUNCTION     0.64     2.15     9.29     0  01:57        2.15
  WS02006239           JUNCTION     0.58     2.03     9.24     0  01:57        2.03
  WS02006240           JUNCTION     0.53     2.10     9.39     0  01:57        2.10
  WS02006242           JUNCTION     0.57     1.55     8.82     0  01:57        1.55
  WS02006243           JUNCTION     0.46     1.48     8.90     0  01:52        1.48
  WS02006245           JUNCTION     0.45     1.56     9.04     0  01:57        1.56
  WS02006247           JUNCTION     0.45     1.37     8.87     0  01:57        1.37
  WS02006248           JUNCTION     0.40     1.10     8.69     0  01:55        1.10
  WS02006249           JUNCTION     0.43     1.09     8.69     0  01:55        1.09
  WS02006251           JUNCTION     0.50     2.21     9.88     0  01:56        2.14
  WS02006252           JUNCTION     0.35     1.50     9.74     0  00:00        1.50
  WS02006253           JUNCTION     0.56     3.12    10.76     0  02:13        3.12
  WS02006256           JUNCTION     0.92     2.35     9.28     0  00:00        2.35
  WS02006280           JUNCTION     0.26     1.77    10.04     0  02:10        1.71
  WS02006284           JUNCTION     0.51     1.97    10.37     0  02:10        1.90
  WS02006287           JUNCTION     0.26     1.75    10.70     0  02:10        1.70
  WSF200               JUNCTION     0.20     0.52     5.75     0  02:14        0.52
  YS02001580           JUNCTION     0.06     1.05     9.59     0  02:08        0.82
  YS02001583           JUNCTION     0.08     1.01     9.50     0  02:08        0.82
  YS02001586           JUNCTION     0.15     1.13     9.30     0  02:08        1.13
  YS02001590           JUNCTION     0.24     1.40     9.26     0  02:08        1.40
  YS02001593           JUNCTION     0.17     1.46     9.32     0  02:32        1.36
  YS02001596           JUNCTION     0.23     1.76     9.17     0  02:32        1.68
  YS02001600           JUNCTION     0.29     1.87     9.00     0  02:08        1.86
  YS02001601           JUNCTION     0.48     2.06     8.90     0  02:07        2.06
  YS02001602           JUNCTION     0.40     1.87     8.77     0  02:07        1.87
  YS02001605           JUNCTION     0.37     1.78     8.68     0  02:32        1.78
  YS02001607           JUNCTION     0.36     1.68     8.52     0  02:13        1.68
  YS02001610           JUNCTION     0.40     1.68     8.48     0  02:07        1.68
  YS02001613           JUNCTION     0.36     1.66     8.50     0  02:20        1.65
  YS02001616           JUNCTION     0.30     1.61     8.52     0  02:13        1.61
  YS02001619           JUNCTION     0.28     1.61     8.54     0  02:13        1.61
  YS02001622           JUNCTION     0.27     1.57     8.47     0  02:20        1.56
  YS02001625           JUNCTION     0.51     1.78     8.38     0  02:10        1.78
  YS02001629           JUNCTION     0.38     1.85     8.40     0  02:10        1.85
  YS02001633           JUNCTION     0.45     2.06     8.51     0  02:13        1.97
  YS02001641           JUNCTION     0.43     2.02     8.45     0  02:13        1.93
  YS02001644           JUNCTION     0.42     1.92     8.35     0  02:13        1.92
  YS02001647           JUNCTION     0.22     1.76     8.37     0  02:13        1.66
  YS02001649           JUNCTION     0.24     1.92     8.31     0  02:13        1.80
  YS02001652           JUNCTION     0.14     1.82     8.42     0  02:13        1.63
  YS02001655           JUNCTION     0.10     1.82     8.67     0  02:13        1.44
  YS02001658           JUNCTION     0.07     1.79     8.93     0  02:13        1.18
  YS02001661           JUNCTION     0.12     0.95     8.36     0  02:14        0.95
  YS02001664           JUNCTION     0.05     0.33     8.26     0  02:14        0.29
  YS02001745           JUNCTION     0.04     0.66     8.17     0  02:13        0.65
  YS02001748           JUNCTION     0.06     1.49     8.57     0  02:13        0.99
  YS02001751           JUNCTION     0.08     1.50     8.38     0  02:13        1.17
  YS02001754           JUNCTION     0.11     1.60     8.21     0  02:13        1.43
  YS02001757           JUNCTION     0.24     1.86     8.12     0  02:13        1.76
  YS02001759           JUNCTION     0.19     1.80     8.17     0  02:14        1.74
  YS02001762           JUNCTION     0.18     1.80     8.20     0  02:14        1.73
  YS02001765           JUNCTION     0.17     1.78     8.23     0  02:13        1.72
  YS02001767           JUNCTION     0.17     1.87     8.36     0  02:11        1.77
  YS02001770           JUNCTION     0.18     1.95     8.44     0  02:11        1.86
  YS02001774           JUNCTION     0.24     1.94     8.36     0  02:12        1.94
  YS02001779           JUNCTION     0.09     1.68     8.37     0  02:11        1.68
  YS02001783           JUNCTION     0.20     1.36     7.50     0  02:11        1.21
  YS02001784           JUNCTION     0.22     1.21     7.28     0  02:11        1.16
  YS02001786           JUNCTION     0.19     0.94     6.97     0  02:11        0.87
  YS02001788           JUNCTION     0.13     0.62     6.60     0  02:13        0.62
  YS02001790           JUNCTION     0.16     0.72     6.37     0  02:13        0.72
  YS02001791           JUNCTION     0.10     0.44     5.91     0  02:14        0.43
  YS02001793           JUNCTION     0.05     0.26     5.10     0  02:13        0.25
  YS02001882           JUNCTION     0.25     1.70     8.42     0  02:13        1.70
  YS02001884           JUNCTION     0.33     1.79     8.41     0  02:11        1.76
  YS02001887           JUNCTION     0.40     1.85     8.39     0  02:13        1.85
  YS02001890           JUNCTION     0.43     1.81     8.32     0  02:10        1.81
  YS02001895           JUNCTION     0.22     1.58     8.33     0  02:13        1.58
  YS02001898           JUNCTION     0.23     1.61     8.34     0  02:13        1.61
  YS02001901           JUNCTION     0.33     1.69     8.30     0  02:20        1.68
  YS02001904           JUNCTION     0.31     1.64     8.27     0  02:20        1.63
  YS02001907           JUNCTION     0.61     1.96     8.25     0  02:11        1.96
  YS02001910           JUNCTION     0.42     1.97     8.48     0  02:12        1.91
  YS02001915           JUNCTION     0.25     1.92     8.64     0  02:12        1.84
  YS02001918           JUNCTION     0.12     1.81     8.88     0  02:12        1.34
  YS02001920           JUNCTION     0.20     2.14     9.15     0  02:12        1.35
  YS02001923           JUNCTION     0.08     2.03     9.29     0  02:12        1.14
  YS02001926           JUNCTION     0.13     1.90     9.35     0  02:12        0.97
  YS02001929           JUNCTION     0.06     1.78     9.47     0  02:12        0.87
  YS02006553           JUNCTION     0.61     2.07     8.35     0  02:13        2.07
  YS02006556           JUNCTION     0.59     2.04     8.35     0  02:13        2.04
  YS02006558           JUNCTION     0.63     2.13     8.40     0  02:13        2.13
  YS02006561           JUNCTION     0.12     1.03     7.69     0  02:11        0.88
  YS02163301           JUNCTION     0.40     1.94     8.46     0  02:13        1.90
  YS02163601           JUNCTION     0.48     2.08     8.48     0  02:13        2.00
  YS02164001           JUNCTION     0.42     2.04     8.50     0  02:13        1.92
  YSB1154              JUNCTION     0.39     2.10    11.16     0  02:13        2.10
  YSB1171              JUNCTION     0.53     1.95    10.85     0  02:10        1.95
  YSB1174              JUNCTION     0.35     1.95    11.06     0  02:13        1.95
  YSB6556              JUNCTION     0.30     1.80    10.97     0  02:13        1.80
  CC-1                 OUTFALL      0.00     0.00     0.00     0  00:00        0.00
  CC-2                 OUTFALL      0.00     0.00     0.00     0  00:00        0.00
  JK-1                 OUTFALL      0.00     0.00     0.00     0  00:00        0.00
  JK-2                 OUTFALL      0.00     0.00     0.00     0  00:00        0.00
  WSC                  OUTFALL      0.27     0.51     1.18     0  02:17        0.51
  CC-storage           STORAGE      0.63     1.22     6.72     0  02:35        1.22
  JK-storage           STORAGE      1.35     4.00     4.80     0  02:22        3.94
  XR-storage           STORAGE      7.73     9.26     7.26     0  08:00        9.26
  
  
  *******************
  Node Inflow Summary
  *******************
  
  -------------------------------------------------------------------------------------------------
                                  Maximum  Maximum                  Lateral       Total        Flow
                                  Lateral    Total  Time of Max      Inflow      Inflow     Balance
                                   Inflow   Inflow   Occurrence      Volume      Volume       Error
  Node                 Type           LPS      LPS  days hr:min    10^6 ltr    10^6 ltr     Percent
  -------------------------------------------------------------------------------------------------
  HS02004478           JUNCTION      0.00  2280.49     0  02:13           0         7.1      -0.005
  HS02004479           JUNCTION      0.00   447.45     0  02:10           0       0.668       0.154
  HS02004480           JUNCTION      0.00  2109.33     0  02:08           0        5.47       0.053
  HS02004770           JUNCTION   1245.33  1245.33     0  02:14        1.95        2.17       0.141
  HS02004777           JUNCTION      0.03   747.13     0  02:07    0.000864        1.64       0.310
  HS02004785           JUNCTION      0.15   763.20     0  02:07     0.00432        1.64       0.031
  HS02004788           JUNCTION    431.71   868.12     0  02:07       0.724        2.36      -0.000
  HS02004792           JUNCTION   1589.81  2337.44     0  02:14         2.7        5.06       0.008
  HS02004799           JUNCTION    243.51  1771.58     0  02:08       0.344        4.83       0.058
  HS02004802           JUNCTION      0.00   950.45     0  02:13           0        1.67       0.239
  HS02004807           JUNCTION    316.16   943.00     0  02:13        0.44        1.71       0.244
  HS02004817           JUNCTION      0.60   621.67     0  02:13      0.0173        1.32       1.266
  HS02004824           JUNCTION    468.67   643.43     0  02:08       0.913        1.48       0.032
  HS02004830           JUNCTION      0.15   654.74     0  02:08     0.00432        0.74       0.138
  HS02004837           JUNCTION    308.56   829.80     0  02:08       0.632        1.01       0.034
  HS02004842           JUNCTION      0.00   854.40     0  02:09           0        0.66       1.982
  HS02004848           JUNCTION    433.72  1092.10     0  02:10       0.904         1.4      -0.015
  HS02004852           JUNCTION      0.00  1081.12     0  02:10           0        1.24      -0.003
  HS02004856           JUNCTION    124.76  1179.84     0  02:10       0.176        1.42       0.045
  HS02004862           JUNCTION    202.77  1207.28     0  02:10       0.389        1.81      -0.042
  HS02004870           JUNCTION    171.27  1332.93     0  02:10       0.241        2.05       0.042
  HS02004876           JUNCTION    192.52  1336.87     0  02:11       0.296        2.34       0.028
  HS02004881           JUNCTION     95.60  1435.75     0  02:13       0.131        2.47       0.000
  HS02004901           JUNCTION    293.28   524.73     0  02:14       0.418       0.612       0.299
  WS02001211           JUNCTION      7.35   205.72     0  02:55       0.212        5.44       0.611
  WS02001212           JUNCTION      0.00   211.04     0  02:46           0        5.41       0.290
  WS02001213           JUNCTION      0.00   215.84     0  02:45           0        5.39       0.333
  WS02003059           JUNCTION      0.00   220.90     0  02:45           0        5.38       0.596
  WS02003060           JUNCTION     16.53  1488.73     0  02:15       0.476          13       0.114
  WS02003066           JUNCTION      0.00  1292.06     0  02:13           0        7.14       0.022
  WS02003067           JUNCTION      0.00  1290.74     0  02:13           0        7.14       0.062
  WS02003069           JUNCTION      0.32  1487.95     0  02:15     0.00922        12.9       0.120
  WS02003072           JUNCTION      0.00  1487.70     0  02:16           0        12.9       0.162
  WS02003073           JUNCTION      1.82  1489.95     0  02:16      0.0524          13       0.169
  WS02004138           JUNCTION      0.00   380.00     0  00:00           0        5.25       0.051
  WS02004139           JUNCTION      0.32   190.32     0  00:31     0.00924        5.26       0.509
  WS02004401           JUNCTION      0.00  1296.67     0  02:13           0        7.25       0.148
  WS02004402           JUNCTION      0.00  1299.88     0  02:13           0        7.24       0.149
  WS02004403           JUNCTION      0.00  1303.54     0  02:13           0        7.23       0.146
  WS02004404           JUNCTION      0.16  1307.57     0  02:13     0.00467        7.22       0.133
  WS02004405           JUNCTION      0.04  1312.89     0  02:13      0.0011        7.22       0.167
  WS02004406           JUNCTION      0.00  1317.46     0  02:13           0         7.2       0.297
  WS02004407           JUNCTION      0.00  1318.61     0  02:13           0        7.18       0.022
  WS02004409           JUNCTION      0.00  1290.22     0  02:13           0        7.18       0.046
  WS02004410           JUNCTION      0.00  1290.64     0  02:13           0        7.18       0.071
  WS02004411           JUNCTION      0.00  1291.14     0  02:13           0        7.17       0.088
  WS02004412           JUNCTION      0.00  1290.47     0  02:13           0        7.17       0.114
  WS02004413           JUNCTION      0.00  1290.58     0  02:13           0        7.16       0.202
  WS02006109           JUNCTION      1.23  1280.20     0  02:13      0.0354        7.07       0.142
  WS02006110           JUNCTION      0.00  1150.50     0  02:32           0        6.92       0.120
  WS02006111           JUNCTION      0.00  1139.15     0  02:32           0        6.91       0.015
  WS02006112           JUNCTION    253.86  1293.01     0  02:13       0.373        7.28       0.266
  WS02006113           JUNCTION      0.00  1146.72     0  02:32           0        6.91       0.033
  WS02006115           JUNCTION      0.00  1291.65     0  02:13           0        7.26       0.102
  WS02006116           JUNCTION      0.00  1292.48     0  02:13           0        7.26       0.072
  WS02006228           JUNCTION      0.00  1278.72     0  02:13           0        7.04       0.076
  WS02006229           JUNCTION      0.00  2284.81     0  02:13           0        8.72       0.110
  WS02006230           JUNCTION     10.28  1019.13     0  02:13       0.296        3.35       0.277
  WS02006231           JUNCTION      0.00   453.53     0  02:32           0        2.43      -0.134
  WS02006232           JUNCTION      0.00   453.91     0  02:13           0        2.43       0.329
  WS02006234           JUNCTION      0.00   453.14     0  02:10           0        2.42      -0.401
  WS02006235           JUNCTION      0.00   421.44     0  03:25           0        2.48       0.519
  WS02006238           JUNCTION      0.00   415.73     0  02:15           0        2.32      -0.125
  WS02006239           JUNCTION      0.00   415.79     0  02:32           0        2.27      -0.086
  WS02006240           JUNCTION      0.00   414.95     0  02:34           0        2.24       0.044
  WS02006242           JUNCTION      0.00   415.59     0  02:13           0        2.24       0.007
  WS02006243           JUNCTION      0.00   371.62     0  00:05           0        1.95      -0.139
  WS02006245           JUNCTION      0.00   383.09     0  00:05           0        1.96       0.708
  WS02006247           JUNCTION      0.00   385.59     0  00:04           0        1.96       0.011
  WS02006248           JUNCTION      0.00   390.96     0  00:04           0        2.16      -0.144
  WS02006249           JUNCTION      0.00  1340.81     0  02:13           0        4.52       0.233
  WS02006251           JUNCTION      0.08  1480.97     0  02:13     0.00222        4.59      -0.014
  WS02006252           JUNCTION      0.00   422.30     0  02:15           0        2.22      -0.643
  WS02006253           JUNCTION     31.46  1474.82     0  02:13      0.0408        2.56       0.087
  WS02006256           JUNCTION      0.00   300.00     0  00:00           0        0.74      -2.706
  WS02006280           JUNCTION      0.00  2283.48     0  02:13           0        7.09       0.018
  WS02006284           JUNCTION      0.10  2281.86     0  02:13     0.00275        7.09       0.001
  WS02006287           JUNCTION      0.00  2282.63     0  02:13           0        7.09       0.012
  WSF200               JUNCTION      0.00  1292.41     0  02:13           0        7.14       0.011
  YS02001580           JUNCTION      0.00   115.19     0  02:08           0     0.00409      -5.982
  YS02001583           JUNCTION      0.00   168.07     0  02:07           0      0.0151      -4.488
  YS02001586           JUNCTION    509.51   509.51     0  02:15         1.1        1.11       0.116
  YS02001590           JUNCTION      0.00   317.87     0  02:23           0       0.995      -0.040
  YS02001593           JUNCTION      0.00   318.16     0  02:13           0       0.995       0.015
  YS02001596           JUNCTION      0.00   317.94     0  02:19           0       0.995       0.011
  YS02001600           JUNCTION      0.00   318.04     0  02:19           0       0.995       0.016
  YS02001601           JUNCTION    890.63  1208.42     0  02:14        1.49        2.48       0.037
  YS02001602           JUNCTION      0.00   514.44     0  02:07           0        1.84       0.022
  YS02001605           JUNCTION      0.00   514.02     0  02:07           0        1.79       0.024
  YS02001607           JUNCTION      0.00   513.71     0  02:07           0        1.78       0.106
  YS02001610           JUNCTION      0.00   512.69     0  02:07           0        1.79       0.125
  YS02001613           JUNCTION      0.00   515.05     0  02:07           0        1.59       0.104
  YS02001616           JUNCTION      0.00   517.57     0  02:07           0        1.59       0.030
  YS02001619           JUNCTION    881.92   938.93     0  02:10         1.7        3.28       0.003
  YS02001622           JUNCTION      0.00   938.02     0  02:10           0        3.28       0.004
  YS02001625           JUNCTION      0.00   937.37     0  02:09           0        3.28       0.271
  YS02001629           JUNCTION      0.00   937.64     0  02:10           0        2.98       0.039
  YS02001633           JUNCTION    688.53  1424.42     0  02:10        1.12        4.09       0.088
  YS02001641           JUNCTION      0.00  1417.77     0  02:10           0        4.08       0.076
  YS02001644           JUNCTION    589.36  1844.50     0  02:10       0.919           5       0.069
  YS02001647           JUNCTION      0.00  1845.33     0  02:10           0        4.98       0.008
  YS02001649           JUNCTION      0.00  2144.92     0  02:10           0        5.86       0.008
  YS02001652           JUNCTION      0.00   670.74     0  02:14           0       0.876      -0.097
  YS02001655           JUNCTION      0.15   669.91     0  02:14     0.00443       0.877       0.059
  YS02001658           JUNCTION      0.00   840.00     0  02:13           0       0.872      -0.015
  YS02001661           JUNCTION      0.00   653.00     0  02:14           0       0.873       0.029
  YS02001664           JUNCTION    598.89   598.89     0  02:13       0.873       0.873      -0.006
  YS02001745           JUNCTION    365.37   365.37     0  02:13       0.503       0.503       0.259
  YS02001748           JUNCTION      0.04   585.40     0  02:13      0.0013       0.504      -0.410
  YS02001751           JUNCTION      0.01   441.38     0  02:16    0.000317       0.511       0.173
  YS02001754           JUNCTION      0.26   422.25     0  02:14     0.00749       0.522      -0.247
  YS02001757           JUNCTION      0.00  3424.10     0  02:14           0        8.21       0.081
  YS02001759           JUNCTION    532.49  1274.06     0  02:13       0.735        1.83      -0.003
  YS02001762           JUNCTION      0.00   746.54     0  02:13           0         1.1       0.001
  YS02001765           JUNCTION      0.00   745.74     0  02:13           0         1.1       0.005
  YS02001767           JUNCTION      0.54   748.11     0  02:13      0.0154         1.1      -0.005
  YS02001770           JUNCTION    721.65   742.62     0  02:13        1.09        1.13       0.008
  YS02001774           JUNCTION      0.00   326.18     0  02:11           0      0.0597       1.857
  YS02001779           JUNCTION      0.01   324.88     0  02:11    0.000144      0.0181      -2.318
  YS02001783           JUNCTION      0.00  1160.52     0  02:13           0        2.96       0.007
  YS02001784           JUNCTION      1.06  1161.22     0  02:13      0.0305        2.99       0.016
  YS02001786           JUNCTION      0.06  1161.64     0  02:13     0.00162        2.99       0.021
  YS02001788           JUNCTION      0.07  1162.53     0  02:13     0.00204        2.99       0.010
  YS02001790           JUNCTION      0.15  1173.77     0  02:11     0.00446           3       0.016
  YS02001791           JUNCTION      0.00  1286.63     0  02:13           0           3      -0.013
  YS02001793           JUNCTION      0.00  1244.49     0  02:13           0           3       0.006
  YS02001882           JUNCTION      0.00    56.52     0  02:09           0      0.0124       5.657
  YS02001884           JUNCTION      0.00    80.04     0  02:09           0      0.0484       5.563
  YS02001887           JUNCTION    569.75   576.16     0  02:13       0.766       0.799       0.568
  YS02001890           JUNCTION      0.00   579.58     0  02:13           0       0.758       0.672
  YS02001895           JUNCTION      0.00   508.92     0  02:14           0       0.742       0.185
  YS02001898           JUNCTION      0.00   509.09     0  02:14           0       0.741       0.050
  YS02001901           JUNCTION      0.00   509.55     0  02:14           0       0.743       0.439
  YS02001904           JUNCTION      0.00   508.62     0  02:14           0       0.747       0.374
  YS02001907           JUNCTION      0.00  1533.85     0  02:13           0        2.29       0.789
  YS02001910           JUNCTION      0.00  1041.34     0  02:13           0        1.54       0.461
  YS02001915           JUNCTION    596.05  1041.71     0  02:13       0.937        1.59       0.102
  YS02001918           JUNCTION      0.00   453.97     0  02:12           0       0.678       0.004
  YS02001920           JUNCTION      2.87   454.07     0  02:12      0.0827       0.661       0.145
  YS02001923           JUNCTION      0.04   413.89     0  02:12     0.00109       0.562      -0.195
  YS02001926           JUNCTION      0.05   660.40     0  02:12      0.0015       0.543      -0.151
  YS02001929           JUNCTION    306.57   505.18     0  02:11       0.527        0.53      -0.057
  YS02006553           JUNCTION      0.00   797.39     0  02:22           0        1.95       0.617
  YS02006556           JUNCTION      0.00   798.15     0  02:22           0        1.95       0.418
  YS02006558           JUNCTION    723.98  1157.30     0  02:12        1.06        2.99       0.112
  YS02006561           JUNCTION      0.00  1158.64     0  02:13           0        2.96       0.001
  YS02163301           JUNCTION      0.00   938.11     0  02:09           0        2.97       0.060
  YS02163601           JUNCTION      0.11  1422.99     0  02:10     0.00317        4.08       0.123
  YS02164001           JUNCTION      0.00  1420.97     0  02:10           0        4.08       0.075
  YSB1154              JUNCTION    310.88   310.88     0  02:14       0.473       0.473       0.320
  YSB1171              JUNCTION      0.00   580.58     0  02:13           0       0.831       0.790
  YSB1174              JUNCTION    269.43   269.43     0  02:13       0.351       0.352       0.381
  YSB6556              JUNCTION      0.00   313.22     0  02:13           0       0.474       0.273
  CC-1                 OUTFALL       0.00   683.00     0  00:00           0        2.94       0.000
  CC-2                 OUTFALL       0.00   683.00     0  00:00           0        3.93       0.000
  JK-1                 OUTFALL       0.00  1000.00     0  00:00           0        1.15       0.000
  JK-2                 OUTFALL       0.00  1000.00     0  00:00           0        1.23       0.000
  WSC                  OUTFALL       0.00  1490.85     0  02:17           0        12.9       0.000
  CC-storage           STORAGE       0.00  3426.97     0  02:14           0        10.4      -0.277
  JK-storage           STORAGE       0.00  1240.32     0  02:15           0        3.15      -0.547
  XR-storage           STORAGE     200.00   200.00     0  00:00        5.76        6.36       0.001
  
  
  **********************
  Node Surcharge Summary
  **********************
  
  Surcharging occurs when water rises above the top of the highest conduit.
  ---------------------------------------------------------------------
                                               Max. Height   Min. Depth
                                   Hours       Above Crown    Below Rim
  Node                 Type      Surcharged         Meters       Meters
  ---------------------------------------------------------------------
  HS02004478           JUNCTION        0.33          0.678        0.262
  HS02004479           JUNCTION        0.45          0.899        0.151
  HS02004480           JUNCTION        0.48          0.971        0.129
  HS02004770           JUNCTION        0.40          0.720        0.000
  HS02004777           JUNCTION        0.41          0.780        0.000
  HS02004785           JUNCTION        0.36          0.790        0.000
  HS02004788           JUNCTION        0.35          0.720        0.000
  HS02004792           JUNCTION        0.46          0.900        0.000
  HS02004799           JUNCTION        0.57          1.060        0.000
  HS02004802           JUNCTION        0.49          1.131        0.079
  HS02004807           JUNCTION        0.47          1.220        0.000
  HS02004817           JUNCTION        0.99          1.740        0.000
  HS02004824           JUNCTION        0.35          1.310        0.000
  HS02004830           JUNCTION        0.33          1.330        0.000
  HS02004837           JUNCTION        0.29          1.340        0.000
  HS02004842           JUNCTION        0.41          1.520        0.000
  HS02004848           JUNCTION        0.25          1.370        0.000
  HS02004852           JUNCTION        0.28          1.420        0.000
  HS02004856           JUNCTION        0.26          1.300        0.000
  HS02004862           JUNCTION        0.30          1.300        0.000
  HS02004870           JUNCTION        0.31          1.400        0.000
  HS02004876           JUNCTION        0.38          1.496        0.064
  HS02004881           JUNCTION        0.36          1.228        0.222
  HS02004901           JUNCTION        0.41          0.720        0.000
  WS02004401           JUNCTION        1.31          1.057        0.603
  WS02004402           JUNCTION        1.32          1.022        0.718
  WS02004403           JUNCTION        1.33          0.949        1.081
  WS02004404           JUNCTION        1.43          0.939        1.841
  WS02004405           JUNCTION        1.41          0.855        1.945
  WS02004406           JUNCTION        1.39          0.608        1.842
  WS02004409           JUNCTION        0.80          0.379        1.981
  WS02004410           JUNCTION        0.75          0.287        2.253
  WS02004411           JUNCTION        0.67          0.202        2.328
  WS02004412           JUNCTION        0.59          0.105        2.205
  WS02004413           JUNCTION        1.07          0.146        2.054
  WS02006109           JUNCTION        1.76          1.820        0.000
  WS02006110           JUNCTION        1.55          1.619        0.231
  WS02006111           JUNCTION        0.95          1.195        0.675
  WS02006112           JUNCTION        1.62          1.665        0.015
  WS02006113           JUNCTION        1.00          1.455        0.475
  WS02006115           JUNCTION        1.23          1.060        1.190
  WS02006116           JUNCTION        1.24          1.036        1.254
  WS02006228           JUNCTION        1.76          2.200        0.000
  WS02006229           JUNCTION        0.70          1.062        0.008
  WS02006230           JUNCTION        1.40          1.570        0.000
  WS02006231           JUNCTION        1.41          1.530        0.000
  WS02006232           JUNCTION        1.57          1.480        0.000
  WS02006234           JUNCTION        1.40          1.240        0.000
  WS02006235           JUNCTION        1.44          1.290        0.000
  WS02006238           JUNCTION        1.46          1.430        0.000
  WS02006239           JUNCTION        1.40          1.290        0.000
  WS02006240           JUNCTION        1.38          1.390        0.000
  WS02006242           JUNCTION        1.42          0.820        0.000
  WS02006243           JUNCTION        1.32          0.770        0.000
  WS02006245           JUNCTION        1.29          0.850        0.000
  WS02006247           JUNCTION        1.30          0.657        0.103
  WS02006248           JUNCTION        1.27          0.380        0.000
  WS02006249           JUNCTION        1.28          0.390        0.000
  WS02006251           JUNCTION        1.23          1.180        0.000
  WS02006252           JUNCTION        1.38          1.100        0.000
  WS02006253           JUNCTION        1.23          2.076        0.404
  WS02006256           JUNCTION        7.27          2.050        0.000
  WS02006280           JUNCTION        0.58          0.717        0.063
  WS02006284           JUNCTION        0.51          0.692        0.108
  WS02006287           JUNCTION        0.43          0.750        0.140
  YS02001580           JUNCTION        0.37          0.450        0.000
  YS02001583           JUNCTION        0.38          0.365        0.135
  YS02001586           JUNCTION        0.46          0.510        0.000
  YS02001590           JUNCTION        0.53          0.750        0.000
  YS02001593           JUNCTION        0.53          0.840        0.000
  YS02001596           JUNCTION        0.63          1.026        0.044
  YS02001600           JUNCTION        0.76          1.190        0.000
  YS02001601           JUNCTION        1.14          1.440        0.000
  YS02001602           JUNCTION        1.00          1.270        0.000
  YS02001605           JUNCTION        0.94          1.180        0.000
  YS02001607           JUNCTION        0.47          0.676        0.004
  YS02001610           JUNCTION        0.49          0.680        0.000
  YS02001613           JUNCTION        0.46          0.663        0.037
  YS02001616           JUNCTION        0.42          0.610        0.000
  YS02001619           JUNCTION        0.41          0.610        0.000
  YS02001622           JUNCTION        0.41          0.569        0.051
  YS02001625           JUNCTION        0.57          0.780        0.000
  YS02001629           JUNCTION        0.35          0.470        0.000
  YS02001633           JUNCTION        0.58          1.039        0.021
  YS02001641           JUNCTION        0.49          1.016        0.084
  YS02001644           JUNCTION        0.44          0.920        0.000
  YS02001647           JUNCTION        0.25          0.756        0.144
  YS02001649           JUNCTION        0.30          0.917        0.133
  YS02001652           JUNCTION        0.19          0.790        0.340
  YS02001655           JUNCTION        0.11          0.824        0.376
  YS02001658           JUNCTION        0.04          0.790        0.510
  YS02001748           JUNCTION        0.01          0.409        0.781
  YS02001751           JUNCTION        0.05          0.501        0.699
  YS02001754           JUNCTION        0.11          0.554        0.596
  YS02001757           JUNCTION        0.30          0.860        0.350
  YS02001759           JUNCTION        0.25          0.803        0.407
  YS02001762           JUNCTION        0.23          0.799        0.351
  YS02001765           JUNCTION        0.20          0.783        0.317
  YS02001767           JUNCTION        0.19          0.869        0.161
  YS02001770           JUNCTION        0.18          0.920        0.000
  YS02001774           JUNCTION        0.23          0.942        0.108
  YS02001779           JUNCTION        0.12          0.680        0.000
  YS02001783           JUNCTION        0.33          0.556        1.044
  YS02001784           JUNCTION        0.31          0.413        1.077
  YS02001786           JUNCTION        0.22          0.144        1.286
  YS02001882           JUNCTION        0.28          0.703        0.127
  YS02001884           JUNCTION        0.29          0.729        0.141
  YS02001887           JUNCTION        0.32          0.805        0.145
  YS02001890           JUNCTION        0.33          0.760        0.000
  YS02001895           JUNCTION        0.27          0.582        0.168
  YS02001898           JUNCTION        0.27          0.579        0.161
  YS02001901           JUNCTION        0.31          0.691        0.179
  YS02001904           JUNCTION        0.30          0.645        0.205
  YS02001907           JUNCTION        0.51          0.950        0.000
  YS02001910           JUNCTION        0.35          0.972        0.128
  YS02001915           JUNCTION        0.28          0.920        0.080
  YS02001918           JUNCTION        0.21          0.810        0.000
  YS02001920           JUNCTION        0.22          1.140        0.000
  YS02001923           JUNCTION        0.01          0.820        0.000
  YS02001926           JUNCTION        0.01          0.900        0.000
  YS02001929           JUNCTION        0.01          0.779        0.001
  YS02006553           JUNCTION        0.53          1.066        0.124
  YS02006556           JUNCTION        0.43          1.003        0.347
  YS02006558           JUNCTION        0.42          1.028        0.372
  YS02006561           JUNCTION        0.18          0.230        0.920
  YS02163301           JUNCTION        0.56          0.943        0.087
  YS02163601           JUNCTION        0.61          1.080        0.000
  YS02164001           JUNCTION        0.50          1.042        0.058
  YSB1154              JUNCTION        0.67          1.400        0.000
  YSB1171              JUNCTION        0.67          1.100        0.000
  YSB1174              JUNCTION        0.60          1.250        0.000
  YSB6556              JUNCTION        0.54          1.100        0.000
  
  
  *********************
  Node Flooding Summary
  *********************
  
  Flooding refers to all water that overflows a node, whether it ponds or not.
  --------------------------------------------------------------------------
                                                             Total   Maximum
                                 Maximum   Time of Max       Flood    Ponded
                        Hours       Rate    Occurrence      Volume     Depth
  Node                 Flooded       LPS   days hr:min    10^6 ltr    Meters
  --------------------------------------------------------------------------
  HS02004770              0.24    708.70      0  02:13       0.333     0.000
  HS02004777              0.01     69.72      0  02:08       0.001     0.000
  HS02004785              0.01    104.43      0  02:07       0.000     0.000
  HS02004788              0.01    229.94      0  02:07       0.001     0.000
  HS02004792              0.24   1194.98      0  02:14       0.571     0.000
  HS02004799              0.07    121.61      0  02:13       0.012     0.000
  HS02004807              0.01      8.90      0  02:10       0.000     0.000
  HS02004817              0.01      0.86      0  02:13       0.000     0.000
  HS02004824              0.01      1.59      0  02:13       0.000     0.000
  HS02004830              0.01      0.46      0  02:13       0.000     0.000
  HS02004837              0.01      1.61      0  02:13       0.000     0.000
  HS02004842              0.01    101.36      0  02:10       0.001     0.000
  HS02004848              0.01    105.61      0  02:10       0.000     0.000
  HS02004852              0.01    143.82      0  02:10       0.000     0.000
  HS02004856              0.01    327.95      0  02:10       0.001     0.000
  HS02004862              0.01    115.37      0  02:10       0.001     0.000
  HS02004870              0.01     78.37      0  02:10       0.000     0.000
  HS02004901              0.30    524.70      0  02:14       0.395     0.000
  WS02006109              0.28    258.04      0  02:13       0.136     0.000
  WS02006228              0.01      1.03      0  02:10       0.000     0.000
  WS02006230              0.52    565.95      0  02:13       0.641     0.000
  WS02006231              0.01      0.78      0  01:57       0.000     0.000
  WS02006232              0.14      1.64      0  02:32       0.000     0.000
  WS02006234              0.56    128.50      0  02:16       0.191     0.000
  WS02006235              0.01      3.21      0  01:57       0.000     0.000
  WS02006238              0.01      2.54      0  01:57       0.000     0.000
  WS02006239              0.01      0.96      0  01:57       0.000     0.000
  WS02006240              0.01      1.07      0  01:57       0.000     0.000
  WS02006242              0.67    137.84      0  02:13       0.284     0.000
  WS02006243              0.01     92.12      0  01:52       0.000     0.000
  WS02006245              0.01      0.55      0  01:57       0.000     0.000
  WS02006248              0.93    343.80      0  02:04       0.948     0.000
  WS02006249              1.24   1279.56      0  02:13       3.093     0.000
  WS02006251              0.01    173.13      0  01:56       0.000     0.000
  WS02006252              0.31    420.49      0  02:15       0.210     0.000
  WS02006256              0.68    294.40      0  02:22       0.417     0.000
  YS02001580              0.01     94.32      0  02:08       0.000     0.000
  YS02001586              0.28    192.09      0  02:14       0.103     0.000
  YS02001590              0.01     10.27      0  02:08       0.000     0.000
  YS02001593              0.01     43.91      0  02:32       0.000     0.000
  YS02001600              0.01     19.63      0  02:32       0.000     0.000
  YS02001601              0.40    810.38      0  02:14       0.640     0.000
  YS02001602              0.28     62.01      0  02:23       0.055     0.000
  YS02001605              0.01     19.56      0  02:32       0.000     0.000
  YS02001610              0.23    369.69      0  02:15       0.200     0.000
  YS02001616              0.01      1.08      0  02:13       0.000     0.000
  YS02001619              0.01      2.00      0  02:13       0.000     0.000
  YS02001625              0.19    879.01      0  02:15       0.287     0.000
  YS02001629              0.05    130.79      0  02:14       0.014     0.000
  YS02001644              0.03    122.31      0  02:14       0.009     0.000
  YS02001770              0.01     64.83      0  02:11       0.000     0.000
  YS02001779              0.01    254.02      0  02:11       0.002     0.000
  YS02001890              0.06     87.01      0  02:13       0.011     0.000
  YS02001907              0.16   1125.23      0  02:13       0.329     0.000
  YS02001918              0.01    206.57      0  02:12       0.003     0.000
  YS02001920              0.01     32.91      0  02:12       0.000     0.000
  YS02001923              0.01    113.76      0  02:12       0.000     0.000
  YS02001926              0.01    251.61      0  02:12       0.002     0.000
  YS02163601              0.01     24.80      0  02:13       0.000     0.000
  YSB1171                 0.14    536.69      0  02:14       0.165     0.000
  YSB1174                 0.01      0.33      0  02:13       0.000     0.000
  YSB6556                 0.01      0.78      0  02:13       0.000     0.000
  
  
  **********************
  Storage Volume Summary
  **********************
  
  --------------------------------------------------------------------------------------------------
                         Average     Avg  Evap Exfil       Maximum     Max    Time of Max    Maximum
                          Volume    Pcnt  Pcnt  Pcnt        Volume    Pcnt     Occurrence    Outflow
  Storage Unit           1000 m3    Full  Loss  Loss       1000 m3    Full    days hr:min        LPS
  --------------------------------------------------------------------------------------------------
  CC-storage               1.744      27     0     0         3.403      53       0  02:35    1783.53
  JK-storage               0.068      23     0     0         0.201      69       0  02:22    2300.00
  XR-storage               0.928      64     0     0         1.111      77       0  08:00     380.00
  
  
  ***********************
  Outfall Loading Summary
  ***********************
  
  -----------------------------------------------------------
                         Flow       Avg       Max       Total
                         Freq      Flow      Flow      Volume
  Outfall Node           Pcnt       LPS       LPS    10^6 ltr
  -----------------------------------------------------------
  CC-1                  27.88    683.00    683.00       2.938
  CC-2                  34.39    683.00    683.00       3.926
  JK-1                   5.54   1000.00   1000.00       1.152
  JK-2                   7.35   1000.00   1000.00       1.234
  WSC                   99.95    553.63   1490.85      12.944
  -----------------------------------------------------------
  System                35.02   3919.63   1490.85      22.193
  
  
  ********************
  Link Flow Summary
  ********************
  
  -----------------------------------------------------------------------------
                                 Maximum  Time of Max   Maximum    Max/    Max/
                                  |Flow|   Occurrence   |Veloc|    Full    Full
  Link                 Type          LPS  days hr:min     m/sec    Flow   Depth
  -----------------------------------------------------------------------------
  1                    CONDUIT   1490.85     0  02:17      3.69    0.52    0.51
  HS02004478WS02006287 CONDUIT   2282.63     0  02:13      2.57    0.64    1.00
  HS02004479HS02004480 CONDUIT    446.70     0  02:10      0.64    0.43    1.00
  HS02004480HS02004478 CONDUIT   2108.39     0  02:08      3.01    8.88    1.00
  HS02004770HS02004777 CONDUIT    747.10     0  02:07      1.07    1.37    1.00
  HS02004777HS02004785 CONDUIT    763.05     0  02:07      1.14    0.94    1.00
  HS02004785HS02004788 CONDUIT    655.50     0  02:07      1.36    4.94    1.00
  HS02004788HS02004792 CONDUIT    806.47     0  02:08      1.42    0.53    1.00
  HS02004792HS02004799 CONDUIT   1628.94     0  02:08      2.33    1.00    1.00
  HS02004799HS02004480 CONDUIT   1771.77     0  02:08      2.53    2.24    1.00
  HS02004802HS02004478 CONDUIT    953.92     0  02:13      1.36    0.84    1.00
  HS02004807HS02004802 CONDUIT    950.45     0  02:13      1.36    1.81    1.00
  HS02004817HS02004807 CONDUIT    627.95     0  02:13      0.90    0.37    1.00
  HS02004817HS02004824 CONDUIT    621.07     0  02:13      0.89    0.28    1.00
  HS02004824HS02004830 CONDUIT    654.59     0  02:08      0.96    0.86    1.00
  HS02004830HS02004837 CONDUIT    651.71     0  02:08      1.01    0.65    1.00
  HS02004837HS02004842 CONDUIT    854.40     0  02:09      1.22    0.51    1.00
  HS02004842HS02004848 CONDUIT    853.06     0  02:09      1.36    0.50    1.00
  HS02004848HS02004852 CONDUIT   1081.12     0  02:10      1.64    1.22    1.00
  HS02004852HS02004856 CONDUIT   1085.96     0  02:10      1.55    1.24    1.00
  HS02004856HS02004862 CONDUIT   1072.57     0  02:10      1.70    1.07    1.00
  HS02004862HS02004870 CONDUIT   1208.49     0  02:10      1.95    1.31    1.00
  HS02004870HS02004876 CONDUIT   1186.78     0  02:11      1.81    0.79    1.00
  HS02004876HS02004881 CONDUIT   1340.57     0  02:11      2.38   14.26    1.00
  HS02004881HS02006253 CONDUIT   1443.50     0  02:13      2.59    0.28    1.00
  HS02004901HS02004770 CONDUIT    265.61     0  02:22      0.38    1.00    1.00
  WS02001211WS02001212 CONDUIT    211.04     0  02:46      0.54    0.16    0.69
  WS02001212WS02001213 CONDUIT    215.84     0  02:45      1.04    0.33    0.56
  WS02001213WS02003059 CONDUIT    220.90     0  02:45      0.47    0.36    0.89
  WS02003059WS02003060 CONDUIT    227.53     0  02:44      0.66    0.15    0.81
  WS02003060WS02003069 CONDUIT   1487.63     0  02:15      2.08    0.58    0.61
  WS02003066WSF200     CONDUIT   1292.41     0  02:13      3.25    0.22    0.38
  WS02003067WS02003066 CONDUIT   1292.06     0  02:13      1.99    0.41    0.56
  WS02003069WS02003072 CONDUIT   1487.70     0  02:16      1.89    0.72    0.66
  WS02003072WS02003073 CONDUIT   1488.13     0  02:16      2.04    3.21    0.61
  WS02004138WS02004139 CONDUIT    190.00     0  00:31      2.17    0.04    0.41
  WS02004139WS02001211 CONDUIT    198.38     0  02:55      0.54    0.25    0.60
  WS02004401WS02004402 CONDUIT   1299.88     0  02:13      1.66    1.56    1.00
  WS02004402WS02004403 CONDUIT   1303.54     0  02:13      1.66    1.87    1.00
  WS02004403WS02004404 CONDUIT   1307.41     0  02:13      1.66    0.95    1.00
  WS02004404WS02004405 CONDUIT   1312.86     0  02:13      1.67   12.86    1.00
  WS02004405WS02004406 CONDUIT   1317.46     0  02:13      1.68    2.60    1.00
  WS02004406WS02004407 CONDUIT   1318.61     0  02:13      1.73    0.59    0.96
  WS02004407WS02004409 CONDUIT   1290.22     0  02:13      1.76    0.46    0.96
  WS02004409WS02004410 CONDUIT   1290.64     0  02:13      1.64    1.67    1.00
  WS02004410WS02004411 CONDUIT   1291.14     0  02:13      1.64    1.76    1.00
  WS02004411WS02004412 CONDUIT   1290.47     0  02:13      1.64    1.83    1.00
  WS02004412WS02004413 CONDUIT   1290.58     0  02:13      1.64    0.86    1.00
  WS02004413WS02003067 CONDUIT   1290.74     0  02:13      2.00    0.55    0.77
  WS02006109WS02006110 CONDUIT   1150.50     0  02:32      2.29    2.21    1.00
  WS02006110WS02006113 CONDUIT   1146.72     0  02:32      2.28    1.04    1.00
  WS02006111WS02006112 CONDUIT   1166.92     0  02:32      2.32    0.55    1.00
  WS02006112WS02006115 CONDUIT   1291.65     0  02:13      1.64    0.76    1.00
  WS02006113WS02006111 CONDUIT   1139.15     0  02:32      2.62    1.37    1.00
  WS02006115WS02006116 CONDUIT   1292.48     0  02:13      1.65    1.66    1.00
  WS02006116WS02004401 CONDUIT   1296.67     0  02:13      1.65    1.79    1.00
  WS02006228WS02006109 CONDUIT   1278.97     0  02:13      2.54    5.59    1.00
  WS02006229WS02006228 CONDUIT   1278.72     0  02:13      2.54    4.24    1.00
  WS02006230WS02006229 CONDUIT   1008.85     0  02:13      2.62   22.45    1.00
  WS02006231WS02006230 CONDUIT    453.53     0  02:32      1.21    6.88    1.00
  WS02006232WS02006231 CONDUIT    453.91     0  02:13      1.18    0.95    1.00
  WS02006234WS02006232 CONDUIT    453.14     0  02:10      1.41    0.92    1.00
  WS02006235WS02006234 CONDUIT    412.76     0  02:35      1.27    4.35    1.00
  WS02006238WS02006235 CONDUIT    415.73     0  02:15      1.45    0.93    1.00
  WS02006239WS02006238 CONDUIT    415.79     0  02:32      1.11    1.33    1.00
  WS02006240WS02006239 CONDUIT    414.95     0  02:34      1.26    1.31    1.00
  WS02006242WS02006240 CONDUIT    415.59     0  02:13      1.14    1.65    1.00
  WS02006243WS02006242 CONDUIT    361.32     0  03:10      1.34    0.77    1.00
  WS02006245WS02006243 CONDUIT    371.62     0  00:05      1.39    1.10    1.00
  WS02006247WS02006245 CONDUIT    383.09     0  00:05      1.37    3.04    1.00
  WS02006248WS02006247 CONDUIT    385.59     0  00:04      1.38    0.84    1.00
  WS02006249WS02006248 CONDUIT    390.96     0  00:04      1.38    2.14    1.00
  WS02006251WS02006249 CONDUIT   1340.81     0  02:13      3.48    3.87    1.00
  WS02006252WS02006251 CONDUIT    407.78     0  02:37     17.62    1.50    1.00
  WS02006253WS02006251 CONDUIT   1480.89     0  02:13      3.85    4.44    1.00
  WS02006256WS02006235 CONDUIT    288.93     0  00:00      4.23    3.06    1.00
  WS02006280WS02006229 CONDUIT   2284.81     0  02:13      4.33    0.49    1.00
  WS02006284WS02006280 CONDUIT   2283.48     0  02:13      3.02    0.96    1.00
  WS02006287WS02006284 CONDUIT   2281.76     0  02:13      2.91    1.06    1.00
  WSF200WS02003060     CONDUIT   1293.77     0  02:14      2.30    0.29    0.50
  YS02001580YS02001583 CONDUIT    115.19     0  02:08      0.68    0.45    1.00
  YS02001583YS02001586 CONDUIT    163.70     0  02:07      0.68    0.25    1.00
  YS02001586YS02001590 CONDUIT    317.87     0  02:23      1.27    0.56    1.00
  YS02001590YS02001593 CONDUIT    318.16     0  02:13      1.13    2.00    1.00
  YS02001593YS02001596 CONDUIT    317.94     0  02:19      1.75    0.50    1.00
  YS02001596YS02001600 CONDUIT    318.04     0  02:19      1.22    0.62    1.00
  YS02001600YS02001601 CONDUIT    317.83     0  02:13      1.12    0.55    1.00
  YS02001601YS02001602 CONDUIT    514.44     0  02:07      1.82    1.86    1.00
  YS02001602YS02001605 CONDUIT    514.02     0  02:07      1.82   10.88    1.00
  YS02001605YS02001607 CONDUIT    513.71     0  02:07      1.82    2.82    1.00
  YS02001607YS02001610 CONDUIT    512.69     0  02:07      0.65    0.49    1.00
  YS02001610YS02001613 CONDUIT    515.05     0  02:07      0.66    0.59    1.00
  YS02001613YS02001616 CONDUIT    517.57     0  02:07      0.66    0.44    1.00
  YS02001616YS02001619 CONDUIT    517.83     0  02:33      0.68    0.90    1.00
  YS02001619YS02001622 CONDUIT    938.02     0  02:10      1.19    1.38    1.00
  YS02001622YS02001625 CONDUIT    937.37     0  02:09      1.19    0.50    1.00
  YS02001625YS02001629 CONDUIT    937.64     0  02:10      1.19    0.45    1.00
  YS02001629YS02163301 CONDUIT    938.11     0  02:09      1.19    1.16    1.00
  YS02001633YS02163601 CONDUIT   1422.88     0  02:10      1.81    1.49    1.00
  YS02001641YS02001644 CONDUIT   1416.88     0  02:10      1.80    4.58    1.00
  YS02001644YS02001647 CONDUIT   1845.33     0  02:10      2.37    1.08    1.00
  YS02001647YS02001649 CONDUIT   1862.78     0  02:10      2.39    0.98    1.00
  YS02001649YS02001757 CONDUIT   2145.01     0  02:10      2.74    1.30    1.00
  YS02001652YS02001649 CONDUIT    671.22     0  02:14      0.85    0.33    1.00
  YS02001655YS02001652 CONDUIT    670.74     0  02:14      1.28    0.33    1.00
  YS02001658YS02001655 CONDUIT    669.75     0  02:14      1.93    0.28    1.00
  YS02001661YS02001658 CONDUIT    840.00     0  02:13      2.38    0.33    0.94
  YS02001664YS02001661 CONDUIT    653.00     0  02:14      2.41    0.20    0.63
  YS02001745YS02001748 CONDUIT    585.35     0  02:13      2.23    0.23    0.77
  YS02001748YS02001751 CONDUIT    441.37     0  02:16      1.73    0.22    1.00
  YS02001751YS02001754 CONDUIT    421.99     0  02:14      1.42    0.20    1.00
  YS02001754YS02001757 CONDUIT    422.90     0  02:14      0.54    0.17    1.00
  YS02001757CaochengTiaoxuchi CONDUIT   3426.97     0  02:14      4.70    1.48    1.00
  YS02001759YS02001757 CONDUIT   1272.88     0  02:13      1.62    0.90    1.00
  YS02001762YS02001759 CONDUIT    748.25     0  02:12      0.95    0.86    1.00
  YS02001765YS02001762 CONDUIT    746.54     0  02:13      0.95    0.70    1.00
  YS02001767YS02001765 CONDUIT    745.74     0  02:13      0.95    0.94    1.00
  YS02001770YS02001767 CONDUIT    747.57     0  02:13      0.95    2.96    1.00
  YS02001774YS02001770 CONDUIT    326.18     0  02:11      0.42    0.21    1.00
  YS02001779YS02001774 CONDUIT    324.87     0  02:11      0.42    0.16    1.00
  YS02001783YS02001784 CONDUIT   1160.16     0  02:13      2.31    1.60    1.00
  YS02001784YS02001785 CONDUIT   1161.58     0  02:13      2.31    2.70    1.00
  YS02001786YS02001788 CONDUIT   1162.46     0  02:13      2.47    2.24    0.89
  YS02001788YS02001790 CONDUIT   1173.61     0  02:11      2.71    0.86    0.84
  YS02001790YS02001791 CONDUIT   1286.63     0  02:13      3.43    1.40    0.70
  YS02001791YS02001793 CONDUIT   1244.49     0  02:13      6.77    0.53    0.43
  YS02001793JiankangQianchi CONDUIT   1240.32     0  02:15      2.49    0.10    0.63
  YS02001882YS02001884 CONDUIT     56.52     0  02:09      0.11    0.06    1.00
  YS02001884YS02001887 CONDUIT     80.04     0  02:09      0.10    0.11    1.00
  YS02001887YS02001890 CONDUIT    579.58     0  02:13      0.74    0.99    1.00
  YS02001890YS02001895 CONDUIT    508.92     0  02:14      0.65    0.24    1.00
  YS02001895YS02001898 CONDUIT    509.09     0  02:14      0.65    0.88    1.00
  YS02001898YS02001901 CONDUIT    509.55     0  02:14      0.65    0.33    1.00
  YS02001901YS02001904 CONDUIT    508.62     0  02:14      0.65    0.79    1.00
  YS02001904YS02001907 CONDUIT    509.40     0  02:14      0.65    0.18    1.00
  YS02001907YS02006553 CONDUIT    797.39     0  02:22      0.89    0.94    1.00
  YS02001910YS02001907 CONDUIT   1039.03     0  02:13      1.32    0.59    1.00
  YS02001915YS02001910 CONDUIT   1041.34     0  02:13      1.33    0.52    1.00
  YS02001918YS02001915 CONDUIT    455.29     0  02:12      0.58    0.25    1.00
  YS02001920YS02001918 CONDUIT    453.97     0  02:12      0.65    0.44    1.00
  YS02001923YS02001920 CONDUIT    451.20     0  02:12      0.72    0.20    1.00
  YS02001926YS02001923 CONDUIT    413.85     0  02:12      0.98    0.59    1.00
  YS02001929YS02001926 CONDUIT    412.17     0  02:12      1.16    0.20    1.00
  YS02006553YS02006556 CONDUIT    798.15     0  02:22      1.02    0.68    1.00
  YS02006556YS02006558 CONDUIT    800.50     0  02:22      1.02    0.63    1.00
  YS02006558YS02006561 CONDUIT   1158.64     0  02:13      4.10    2.56    1.00
  YS02006561YS02001783 CONDUIT   1160.52     0  02:13      2.31    0.60    1.00
  YS02163301YS02001633 CONDUIT    937.64     0  02:09      1.19    0.88    1.00
  YS02163601YS02164001 CONDUIT   1420.97     0  02:10      1.81    1.26    1.00
  YS02164001YS02001641 CONDUIT   1417.77     0  02:10      1.81    1.94    1.00
  YSB1154YSB6556       CONDUIT    313.22     0  02:13      0.81    0.56    1.00
  YSB1171HS02004479    CONDUIT    447.45     0  02:10      0.89    0.30    1.00
  YSB1174YSB1171       CONDUIT    269.04     0  02:13      0.70    0.41    1.00
  YSB6556YSB1171       CONDUIT    314.40     0  02:13      0.82    0.32    1.00
  CC-R1                PUMP       683.00     0  00:00              1.00
  CC-R2                PUMP       683.00     0  00:00              1.00
  CC-S1                PUMP       200.00     0  00:00              1.00
  CC-S2                PUMP       200.00     0  00:00              1.00
  JK-R1                PUMP      1000.00     0  00:00              1.00
  JK-R2                PUMP      1000.00     0  00:00              1.00
  JK-S                 PUMP       300.00     0  00:00              1.00
  XR-1                 PUMP        95.00     0  00:00              1.00
  XR-2                 PUMP        95.00     0  00:00              1.00
  XR-3                 PUMP        95.00     0  00:00              1.00
  XR-4                 PUMP        95.00     0  00:00              1.00
  
  
  ***************************
  Flow Classification Summary
  ***************************
  
  -------------------------------------------------------------------------------------
                      Adjusted    ---------- Fraction of Time in Flow Class ---------- 
                       /Actual         Up    Down  Sub   Sup   Up    Down  Norm  Inlet 
  Conduit               Length    Dry  Dry   Dry   Crit  Crit  Crit  Crit  Ltd   Ctrl  
  -------------------------------------------------------------------------------------
  1                       1.00   0.00  0.00  0.00  0.00  1.00  0.00  0.00  0.34  0.00
  HS02004478WS02006287    1.00   0.17  0.00  0.00  0.51  0.31  0.00  0.00  0.61  0.00
  HS02004479HS02004480    1.00   0.09  0.00  0.00  0.91  0.00  0.00  0.00  0.11  0.00
  HS02004480HS02004478    1.00   0.16  0.00  0.00  0.44  0.00  0.00  0.39  0.00  0.00
  HS02004770HS02004777    1.00   0.00  0.16  0.00  0.84  0.00  0.00  0.00  0.03  0.00
  HS02004777HS02004785    1.00   0.00  0.00  0.00  1.00  0.00  0.00  0.00  0.12  0.00
  HS02004785HS02004788    1.00   0.00  0.00  0.00  1.00  0.00  0.00  0.00  0.00  0.00
  HS02004788HS02004792    1.00   0.00  0.00  0.00  0.99  0.01  0.00  0.00  0.92  0.00
  HS02004792HS02004799    1.00   0.00  0.00  0.00  0.98  0.02  0.00  0.00  0.88  0.00
  HS02004799HS02004480    1.00   0.00  0.09  0.00  0.83  0.00  0.08  0.00  0.00  0.00
  HS02004802HS02004478    1.00   0.16  0.00  0.00  0.84  0.00  0.00  0.00  0.03  0.00
  HS02004807HS02004802    1.00   0.16  0.00  0.00  0.83  0.00  0.00  0.01  0.00  0.00
  HS02004817HS02004807    1.00   0.00  0.16  0.00  0.84  0.00  0.00  0.00  0.01  0.00
  HS02004817HS02004824    1.00   0.00  0.00  0.00  1.00  0.00  0.00  0.00  0.84  0.00
  HS02004824HS02004830    1.00   0.00  0.00  0.00  1.00  0.00  0.00  0.00  0.01  0.00
  HS02004830HS02004837    1.00   0.00  0.00  0.00  1.00  0.00  0.00  0.00  0.91  0.00
  HS02004837HS02004842    1.00   0.00  0.00  0.00  1.00  0.00  0.00  0.00  0.11  0.00
  HS02004842HS02004848    1.00   0.00  0.16  0.00  0.84  0.00  0.00  0.00  0.58  0.00
  HS02004848HS02004852    1.00   0.16  0.00  0.00  0.84  0.00  0.00  0.00  0.70  0.00
  HS02004852HS02004856    1.00   0.16  0.00  0.00  0.84  0.00  0.00  0.00  0.70  0.00
  HS02004856HS02004862    1.00   0.00  0.18  0.00  0.82  0.00  0.00  0.00  0.76  0.00
  HS02004862HS02004870    1.00   0.00  0.00  0.00  1.00  0.00  0.00  0.00  0.04  0.00
  HS02004870HS02004876    1.00   0.00  0.00  0.00  0.96  0.03  0.00  0.00  0.88  0.00
  HS02004876HS02004881    1.00   0.04  0.00  0.00  0.74  0.22  0.00  0.00  0.00  0.00
  HS02004881HS02006253    1.00   0.01  0.11  0.00  0.33  0.04  0.00  0.51  0.15  0.00
  HS02004901HS02004770    1.00   0.16  0.00  0.00  0.84  0.00  0.00  0.00  0.00  0.00
  WS02001211WS02001212    1.00   0.00  0.05  0.00  0.95  0.00  0.00  0.00  0.00  0.00
  WS02001212WS02001213    1.00   0.05  0.01  0.00  0.40  0.00  0.54  0.00  0.00  0.00
  WS02001213WS02003059    1.00   0.00  0.00  0.00  0.99  0.00  0.00  0.00  0.00  0.00
  WS02003059WS02003060    1.00   0.00  0.00  0.00  1.00  0.00  0.00  0.00  0.03  0.00
  WS02003060WS02003069    1.00   0.00  0.00  0.00  0.98  0.02  0.00  0.00  0.50  0.00
  WS02003066WSF200        1.00   0.13  0.00  0.00  0.00  0.87  0.00  0.00  0.72  0.00
  WS02003067WS02003066    1.00   0.12  0.00  0.00  0.88  0.00  0.00  0.00  0.00  0.00
  WS02003069WS02003072    1.00   0.00  0.00  0.00  1.00  0.00  0.00  0.00  0.71  0.00
  WS02003072WS02003073    1.00   0.00  0.00  0.00  0.00  0.00  0.00  1.00  0.00  0.00
  WS02004138WS02004139    1.00   0.00  0.01  0.00  0.94  0.02  0.00  0.02  0.98  0.00
  WS02004139WS02001211    1.00   0.00  0.00  0.00  0.99  0.00  0.00  0.00  0.00  0.00
  WS02004401WS02004402    1.00   0.05  0.00  0.00  0.94  0.00  0.00  0.00  0.00  0.00
  WS02004402WS02004403    1.00   0.06  0.00  0.00  0.94  0.00  0.00  0.00  0.00  0.00
  WS02004403WS02004404    1.00   0.00  0.06  0.00  0.94  0.00  0.00  0.00  0.00  0.00
  WS02004404WS02004405    1.00   0.00  0.00  0.00  1.00  0.00  0.00  0.00  0.01  0.00
  WS02004405WS02004406    1.00   0.00  0.00  0.00  1.00  0.00  0.00  0.00  0.00  0.00
  WS02004406WS02004407    1.00   0.00  0.10  0.00  0.90  0.00  0.00  0.00  0.00  0.00
  WS02004407WS02004409    1.00   0.10  0.00  0.00  0.88  0.01  0.00  0.00  0.86  0.00
  WS02004409WS02004410    1.00   0.10  0.00  0.00  0.90  0.00  0.00  0.00  0.00  0.00
  WS02004410WS02004411    1.00   0.11  0.00  0.00  0.89  0.00  0.00  0.00  0.00  0.00
  WS02004411WS02004412    1.00   0.11  0.00  0.00  0.89  0.00  0.00  0.00  0.00  0.00
  WS02004412WS02004413    1.00   0.11  0.00  0.00  0.89  0.00  0.00  0.00  0.00  0.00
  WS02004413WS02003067    1.00   0.11  0.01  0.00  0.00  0.00  0.88  0.00  0.00  0.00
  WS02006109WS02006110    1.00   0.00  0.01  0.00  0.97  0.00  0.02  0.00  0.00  0.00
  WS02006110WS02006113    1.00   0.01  0.03  0.00  0.97  0.00  0.00  0.00  0.00  0.00
  WS02006111WS02006112    1.00   0.04  0.00  0.00  0.95  0.01  0.00  0.01  0.80  0.00
  WS02006112WS02006115    1.00   0.04  0.01  0.00  0.94  0.00  0.01  0.00  0.00  0.00
  WS02006113WS02006111    1.00   0.03  0.00  0.00  0.23  0.74  0.00  0.00  0.08  0.00
  WS02006115WS02006116    1.00   0.05  0.00  0.00  0.93  0.00  0.00  0.02  0.00  0.00
  WS02006116WS02004401    1.00   0.05  0.00  0.00  0.95  0.00  0.00  0.00  0.00  0.00
  WS02006228WS02006109    1.00   0.00  0.00  0.00  1.00  0.00  0.00  0.00  0.00  0.00
[...]
  WS02006280WS02006229    1.00   0.16  0.00  0.00  0.17  0.05  0.00  0.62  0.01  0.00
  WS02006284WS02006280    1.00   0.16  0.00  0.00  0.12  0.01  0.00  0.70  0.00  0.00
  WS02006287WS02006284    1.00   0.15  0.03  0.00  0.40  0.42  0.00  0.00  0.66  0.00
  WSF200WS02003060        1.00   0.00  0.13  0.00  0.50  0.37  0.00  0.00  0.69  0.00
  YS02001580YS02001583    1.00   0.33  0.41  0.00  0.27  0.00  0.00  0.00  0.67  0.00
  YS02001583YS02001586    1.00   0.36  0.30  0.00  0.34  0.00  0.00  0.00  0.67  0.00
  YS02001586YS02001590    1.00   0.16  0.00  0.00  0.57  0.02  0.00  0.25  0.35  0.00
  YS02001590YS02001593    1.00   0.16  0.00  0.00  0.12  0.00  0.72  0.00  0.00  0.00
  YS02001593YS02001596    1.00   0.16  0.00  0.00  0.14  0.01  0.00  0.69  0.02  0.00
  YS02001596YS02001600    1.00   0.16  0.00  0.00  0.25  0.02  0.00  0.56  0.06  0.00
  YS02001600YS02001601    1.00   0.16  0.00  0.00  0.84  0.00  0.00  0.00  0.63  0.00
  YS02001601YS02001602    1.00   0.16  0.00  0.00  0.84  0.00  0.00  0.00  0.00  0.00
  YS02001602YS02001605    1.00   0.16  0.00  0.00  0.84  0.00  0.00  0.00  0.00  0.00
  YS02001605YS02001607    1.00   0.16  0.00  0.00  0.84  0.00  0.00  0.00  0.00  0.00
  YS02001607YS02001610    1.00   0.16  0.00  0.00  0.83  0.00  0.00  0.00  0.02  0.00
  YS02001610YS02001613    1.00   0.16  0.00  0.00  0.84  0.00  0.00  0.00  0.01  0.00
  YS02001613YS02001616    1.00   0.16  0.00  0.00  0.84  0.00  0.00  0.00  0.01  0.00
  YS02001616YS02001619    1.00   0.16  0.00  0.00  0.84  0.00  0.00  0.00  0.00  0.00
  YS02001619YS02001622    1.00   0.16  0.00  0.00  0.84  0.00  0.00  0.00  0.35  0.00
  YS02001622YS02001625    1.00   0.16  0.00  0.00  0.84  0.00  0.00  0.00  0.05  0.00
  YS02001625YS02001629    1.00   0.16  0.03  0.00  0.17  0.00  0.64  0.00  0.00  0.00
  YS02001629YS02163301    1.00   0.17  0.00  0.00  0.82  0.00  0.00  0.00  0.00  0.00
  YS02001633YS02163601    1.00   0.00  0.00  0.00  1.00  0.00  0.00  0.00  0.15  0.00
  YS02001641YS02001644    1.00   0.00  0.00  0.00  1.00  0.00  0.00  0.00  0.00  0.00
  YS02001644YS02001647    1.00   0.00  0.18  0.00  0.82  0.00  0.00  0.00  0.00  0.00
  YS02001647YS02001649    1.00   0.00  0.18  0.00  0.38  0.43  0.00  0.00  0.59  0.00
  YS02001649YS02001757    1.00   0.00  0.00  0.00  0.54  0.46  0.00  0.00  0.59  0.00
  YS02001652YS02001649    1.00   0.00  0.00  0.00  0.98  0.02  0.00  0.00  0.78  0.00
  YS02001655YS02001652    1.00   0.00  0.00  0.00  0.19  0.03  0.00  0.78  0.08  0.00
  YS02001658YS02001655    1.00   0.00  0.17  0.00  0.45  0.38  0.00  0.00  0.75  0.00
  YS02001661YS02001658    1.00   0.17  0.00  0.00  0.29  0.54  0.00  0.00  0.75  0.00
  YS02001664YS02001661    1.00   0.16  0.00  0.00  0.66  0.18  0.00  0.00  0.86  0.00
  YS02001745YS02001748    1.00   0.00  0.00  0.00  0.03  0.01  0.00  0.95  0.02  0.00
  YS02001748YS02001751    1.00   0.00  0.00  0.00  0.65  0.35  0.00  0.00  0.81  0.00
  YS02001751YS02001754    1.00   0.00  0.00  0.00  0.12  0.01  0.00  0.87  0.03  0.00
  YS02001754YS02001757    1.00   0.00  0.00  0.00  1.00  0.00  0.00  0.00  0.90  0.00
  YS02001757CaochengTiaoxuchi    1.00   0.00  0.00  0.00  0.91  0.09  0.00  0.00  0.88  0.00
  YS02001759YS02001757    1.00   0.00  0.00  0.00  1.00  0.00  0.00  0.00  0.64  0.00
  YS02001762YS02001759    1.00   0.00  0.00  0.00  1.00  0.00  0.00  0.00  0.05  0.00
  YS02001765YS02001762    1.00   0.00  0.00  0.00  1.00  0.00  0.00  0.00  0.76  0.00
  YS02001767YS02001765    1.00   0.00  0.00  0.00  1.00  0.00  0.00  0.00  0.00  0.00
  YS02001770YS02001767    1.00   0.00  0.00  0.00  1.00  0.00  0.00  0.00  0.00  0.00
  YS02001774YS02001770    1.00   0.00  0.16  0.00  0.69  0.00  0.15  0.00  0.03  0.00
  YS02001779YS02001774    1.00   0.00  0.00  0.00  1.00  0.00  0.00  0.00  0.81  0.00
  YS02001783YS02001784    1.00   0.00  0.19  0.00  0.81  0.00  0.00  0.00  0.58  0.00
  YS02001784YS02001785    1.00   0.00  0.00  0.00  1.00  0.00  0.00  0.00  0.18  0.00
  YS02001786YS02001788    1.00   0.00  0.00  0.00  0.64  0.36  0.00  0.00  0.00  0.00
  YS02001788YS02001790    1.00   0.00  0.00  0.00  0.22  0.78  0.00  0.00  0.83  0.00
  YS02001790YS02001791    1.00   0.00  0.00  0.00  0.02  0.98  0.00  0.00  0.16  0.00
  YS02001791YS02001793    1.00   0.00  0.00  0.00  0.00  1.00  0.00  0.00  0.01  0.00
  YS02001793JiankangQianchi    1.00   0.00  0.00  0.00  0.98  0.01  0.00  0.00  0.98  0.00
  YS02001882YS02001884    1.00   0.17  0.00  0.00  0.82  0.00  0.00  0.00  0.00  0.00
  YS02001884YS02001887    1.00   0.12  0.03  0.00  0.85  0.00  0.00  0.00  0.00  0.00
  YS02001887YS02001890    1.00   0.00  0.00  0.00  0.93  0.00  0.07  0.00  0.00  0.00
  YS02001890YS02001895    1.00   0.00  0.18  0.00  0.82  0.00  0.00  0.00  0.00  0.00
  YS02001895YS02001898    1.00   0.18  0.00  0.00  0.80  0.00  0.02  0.00  0.00  0.00
  YS02001898YS02001901    1.00   0.18  0.00  0.00  0.82  0.00  0.00  0.00  0.01  0.00
  YS02001901YS02001904    1.00   0.18  0.00  0.00  0.82  0.00  0.00  0.00  0.00  0.00
  YS02001904YS02001907    1.00   0.00  0.18  0.00  0.82  0.00  0.00  0.00  0.00  0.00
  YS02001907YS02006553    1.00   0.00  0.05  0.00  0.95  0.00  0.00  0.00  0.00  0.00
  YS02001910YS02001907    1.00   0.00  0.00  0.00  0.93  0.01  0.00  0.06  0.12  0.00
  YS02001915YS02001910    1.00   0.00  0.00  0.00  0.95  0.05  0.00  0.00  0.17  0.00
  YS02001918YS02001915    1.00   0.00  0.00  0.00  0.94  0.05  0.00  0.00  0.79  0.00
  YS02001920YS02001918    1.00   0.00  0.00  0.00  1.00  0.00  0.00  0.00  0.00  0.00
  YS02001923YS02001920    1.00   0.00  0.00  0.00  1.00  0.00  0.00  0.00  0.95  0.00
  YS02001926YS02001923    1.00   0.00  0.13  0.00  0.05  0.00  0.82  0.00  0.00  0.00
  YS02001929YS02001926    1.00   0.00  0.16  0.00  0.84  0.00  0.00  0.00  0.84  0.00
  YS02006553YS02006556    1.00   0.01  0.00  0.00  0.99  0.00  0.00  0.00  0.03  0.00
  YS02006556YS02006558    1.00   0.00  0.00  0.00  1.00  0.00  0.00  0.00  0.00  0.00
  YS02006558YS02006561    1.00   0.19  0.00  0.00  0.04  0.77  0.00  0.00  0.18  0.00
  YS02006561YS02001783    1.00   0.19  0.00  0.00  0.08  0.73  0.00  0.00  0.72  0.00
  YS02163301YS02001633    1.00   0.00  0.17  0.00  0.83  0.00  0.00  0.00  0.00  0.00
  YS02163601YS02164001    1.00   0.00  0.14  0.00  0.86  0.00  0.00  0.00  0.00  0.00
  YS02164001YS02001641    1.00   0.01  0.13  0.00  0.86  0.00  0.00  0.00  0.06  0.00
  YSB1154YSB6556          1.00   0.16  0.00  0.00  0.84  0.00  0.00  0.00  0.02  0.00
  YSB1171HS02004479       1.00   0.10  0.00  0.00  0.88  0.00  0.00  0.02  0.10  0.00
  YSB1174YSB1171          1.00   0.12  0.03  0.00  0.86  0.00  0.00  0.00  0.00  0.00
  YSB6556YSB1171          1.00   0.10  0.05  0.00  0.84  0.00  0.00  0.00  0.00  0.00
  
  
  *************************
  Conduit Surcharge Summary
  *************************
  
  ----------------------------------------------------------------------------
                                                           Hours        Hours 
                         --------- Hours Full --------   Above Full   Capacity
  Conduit                Both Ends  Upstream  Dnstream   Normal Flow   Limited
  ----------------------------------------------------------------------------
  HS02004478WS02006287        0.33      0.33      0.49      0.01         0.01
  HS02004479HS02004480        0.49      0.49      0.51      0.01         0.01
  HS02004480HS02004478        0.43      0.48      0.43      1.53         0.43
  HS02004770HS02004777        0.40      0.40      0.41      0.09         0.06
  HS02004777HS02004785        0.36      0.36      0.41      0.01         0.01
  HS02004785HS02004788        0.35      0.36      0.35      1.22         0.33
  HS02004788HS02004792        0.35      0.35      0.46      0.01         0.01
  HS02004792HS02004799        0.46      0.46      0.57      0.01         0.02
  HS02004799HS02004480        0.48      0.48      0.57      0.65         0.01
  HS02004802HS02004478        0.44      0.44      0.50      0.01         0.01
  HS02004807HS02004802        0.47      0.47      0.49      0.13         0.13
  HS02004817HS02004807        0.47      0.47      0.99      0.01         0.01
  HS02004817HS02004824        0.35      0.35      0.99      0.01         0.01
  HS02004824HS02004830        0.33      0.33      0.35      0.01         0.01
  HS02004830HS02004837        0.29      0.29      0.33      0.01         0.01
  HS02004837HS02004842        0.29      0.29      0.41      0.01         0.01
  HS02004842HS02004848        0.25      0.25      0.41      0.01         0.01
  HS02004848HS02004852        0.25      0.25      0.28      0.03         0.01
  HS02004852HS02004856        0.27      0.28      0.29      0.02         0.01
  HS02004856HS02004862        0.26      0.26      0.30      0.01         0.01
  HS02004862HS02004870        0.30      0.30      0.31      0.04         0.04
  HS02004870HS02004876        0.31      0.31      0.38      0.01         0.01
  HS02004876HS02004881        0.36      0.38      0.36      1.24         0.35
  HS02004881HS02006253        0.36      0.36      1.23      0.01         0.01
  HS02004901HS02004770        0.40      0.40      0.41      0.01         0.01
  WS02003072WS02003073        0.01      0.01      0.01      1.96         0.01
  WS02004401WS02004402        1.31      1.31      1.32      1.14         1.12
  WS02004402WS02004403        1.32      1.32      1.33      1.30         1.30
  WS02004403WS02004404        1.33      1.33      1.43      0.01         0.01
  WS02004404WS02004405        1.41      1.43      1.41      2.88         1.41
  WS02004405WS02004406        1.39      1.41      1.39      1.58         1.39
  WS02004406WS02004407        0.01      0.01      1.39      0.01         0.01
  WS02004407WS02004409        0.01      0.01      0.80      0.01         0.01
  WS02004409WS02004410        0.75      0.80      0.75      1.22         0.75
  WS02004410WS02004411        0.67      0.75      0.67      1.27         0.67
  WS02004411WS02004412        0.59      0.67      0.59      1.30         0.59
  WS02004412WS02004413        0.59      0.59      1.07      0.01         0.01
  WS02004413WS02003067        0.01      0.01      1.07      0.01         0.01
  WS02006109WS02006110        1.55      1.55      1.77      1.55         0.01
  WS02006110WS02006113        1.00      1.00      1.76      0.22         0.01
  WS02006111WS02006112        0.95      0.95      1.89      0.01         0.01
  WS02006112WS02006115        1.23      1.23      1.62      0.01         0.01
  WS02006113WS02006111        0.97      1.00      0.97      1.10         0.97
  WS02006115WS02006116        1.24      1.24      1.24      1.21         1.20
  WS02006116WS02004401        1.30      1.30      1.31      1.28         1.27
  WS02006228WS02006109        1.76      1.77      1.76      1.99         1.76
  WS02006229WS02006228        1.76      1.76      1.76      1.85         1.76
  WS02006230WS02006229        1.79      1.80      1.79      2.85         0.86
  WS02006231WS02006230        1.40      1.40      1.42      2.23         0.84
  WS02006232WS02006231        1.41      1.41      1.57      0.01         0.10
  WS02006234WS02006232        1.44      1.44      1.57      0.01         0.01
  WS02006235WS02006234        1.40      1.40      1.44      1.98         0.79
  WS02006238WS02006235        1.45      1.45      1.50      0.01         0.25
  WS02006239WS02006238        1.44      1.44      1.46      0.75         0.14
  WS02006240WS02006239        1.39      1.39      1.40      0.74         0.13
  WS02006242WS02006240        1.38      1.38      1.44      1.08         0.67
  WS02006243WS02006242        1.34      1.34      1.42      0.01         0.01
  WS02006245WS02006243        1.30      1.30      1.32      0.10         0.08
  WS02006247WS02006245        1.29      1.30      1.29      1.79         0.38
  WS02006248WS02006247        1.28      1.28      1.30      0.01         0.01
  WS02006249WS02006248        1.27      1.27      1.28      0.86         0.01
  WS02006251WS02006249        1.27      1.27      1.28      1.29         1.23
  WS02006252WS02006251        1.34      1.34      1.37      0.89         0.01
  WS02006253WS02006251        1.27      1.27      1.28      0.59         0.01
  WS02006256WS02006235        2.34      2.38      7.20      0.33         0.01
  WS02006280WS02006229        0.60      0.60      0.70      0.01         0.01
  WS02006284WS02006280        0.51      0.51      0.58      0.01         0.01
  WS02006287WS02006284        0.43      0.43      0.52      0.15         0.16
  YS02001580YS02001583        0.37      0.37      0.40      0.01         0.01
  YS02001583YS02001586        0.38      0.38      0.46      0.01         0.01
  YS02001586YS02001590        0.47      0.47      0.53      0.01         0.01
  YS02001590YS02001593        0.53      0.53      0.54      0.56         0.01
  YS02001593YS02001596        0.54      0.54      0.63      0.01         0.01
  YS02001596YS02001600        0.67      0.67      0.76      0.01         0.01
  YS02001600YS02001601        0.82      0.82      1.14      0.01         0.01
  YS02001601YS02001602        1.00      1.00      1.19      0.78         0.01
  YS02001602YS02001605        0.94      0.94      1.00      2.00         0.01
  YS02001605YS02001607        0.89      0.94      0.89      1.09         0.89
  YS02001607YS02001610        0.47      0.47      0.49      0.01         0.01
  YS02001610YS02001613        0.46      0.46      0.49      0.01         0.01
  YS02001613YS02001616        0.42      0.42      0.46      0.01         0.01
  YS02001616YS02001619        0.41      0.41      0.42      0.01         0.01
  YS02001619YS02001622        0.41      0.41      0.41      0.56         0.39
  YS02001622YS02001625        0.41      0.41      0.57      0.01         0.01
  YS02001625YS02001629        0.35      0.35      0.57      0.01         0.01
  YS02001629YS02163301        0.56      0.56      0.56      0.27         0.26
  YS02001633YS02163601        0.58      0.58      0.61      0.39         0.38
  YS02001641YS02001644        0.44      0.49      0.44      1.23         0.44
  YS02001644YS02001647        0.25      0.25      0.44      0.05         0.01
  YS02001647YS02001649        0.25      0.25      0.30      0.01         0.01
  YS02001649YS02001757        0.29      0.30      0.30      0.31         0.25
  YS02001652YS02001649        0.20      0.20      0.30      0.01         0.01
  YS02001655YS02001652        0.11      0.11      0.19      0.01         0.01
  YS02001658YS02001655        0.04      0.04      0.11      0.01         0.01
  YS02001661YS02001658        0.01      0.01      0.04      0.01         0.01
  YS02001745YS02001748        0.01      0.01      0.01      0.01         0.01
  YS02001748YS02001751        0.01      0.01      0.05      0.01         0.01
  YS02001751YS02001754        0.05      0.05      0.11      0.01         0.01
  YS02001754YS02001757        0.12      0.12      0.30      0.01         0.01
  YS02001757CaochengTiaoxuchi        0.15      0.30      0.67      0.29         0.09
  YS02001759YS02001757        0.25      0.25      0.30      0.01         0.01
  YS02001762YS02001759        0.23      0.23      0.25      0.01         0.02
  YS02001765YS02001762        0.20      0.20      0.23      0.01         0.01
  YS02001767YS02001765        0.19      0.19      0.20      0.01         0.02
  YS02001770YS02001767        0.19      0.20      0.19      0.37         0.18
  YS02001774YS02001770        0.18      0.18      0.23      0.01         0.01
  YS02001779YS02001774        0.12      0.12      0.23      0.01         0.01
  YS02001783YS02001784        0.31      0.33      0.31      0.45         0.31
  YS02001784YS02001785        0.22      0.31      0.22      0.64         0.22
  YS02001786YS02001788        0.01      0.22      0.01      0.54         0.01
  YS02001790YS02001791        0.01      0.01      0.01      0.30         0.01
  YS02001793JiankangQianchi        0.01      0.01      6.63      0.01         0.01
  YS02001882YS02001884        0.28      0.28      0.29      0.01         0.01
  YS02001884YS02001887        0.31      0.31      0.32      0.01         0.01
  YS02001887YS02001890        0.33      0.33      0.34      0.01         0.01
  YS02001890YS02001895        0.27      0.27      0.35      0.01         0.01
  YS02001895YS02001898        0.27      0.27      0.27      0.01         0.01
  YS02001898YS02001901        0.28      0.28      0.31      0.01         0.01
  YS02001901YS02001904        0.30      0.30      0.31      0.01         0.01
  YS02001904YS02001907        0.30      0.30      0.53      0.01         0.01
  YS02001907YS02006553        0.64      0.64      0.71      0.01         0.01
  YS02001910YS02001907        0.35      0.35      0.51      0.01         0.01
  YS02001915YS02001910        0.28      0.28      0.35      0.01         0.01
  YS02001918YS02001915        0.21      0.21      0.28      0.01         0.01
  YS02001920YS02001918        0.21      0.21      0.22      0.01         0.01
  YS02001923YS02001920        0.17      0.17      0.22      0.01         0.01
  YS02001926YS02001923        0.01      0.01      0.01      0.01         0.01
  YS02001929YS02001926        0.01      0.01      0.01      0.01         0.01
  YS02006553YS02006556        0.43      0.43      0.53      0.01         0.01
  YS02006556YS02006558        0.47      0.47      0.54      0.01         0.01
  YS02006558YS02006561        0.24      0.42      0.24      0.60         0.24
  YS02006561YS02001783        0.18      0.18      0.33      0.01         0.01
  YS02163301YS02001633        0.56      0.56      0.60      0.01         0.01
  YS02163601YS02164001        0.50      0.50      0.61      0.21         0.01
  YS02164001YS02001641        0.49      0.50      0.49      0.62         0.44
  YSB1154YSB6556              0.54      0.54      0.67      0.01         0.01
  YSB1171HS02004479           0.45      0.45      0.67      0.01         0.01
  YSB1174YSB1171              0.60      0.60      0.90      0.01         0.01
  YSB6556YSB1171              0.54      0.54      1.07      0.01         0.01
  
  
  ***************
  Pumping Summary
  ***************
  
  ---------------------------------------------------------------------------------------------------------
                                                  Min       Avg       Max     Total     Power    % Time Off
                        Percent   Number of      Flow      Flow      Flow    Volume     Usage    Pump Curve
  Pump                 Utilized   Start-Ups       LPS       LPS       LPS  10^6 ltr     Kw-hr    Low   High
  ---------------------------------------------------------------------------------------------------------
  CC-R1                   15.00          32      0.00    683.00    683.00     2.951     50.75    0.0   65.3
  CC-R2                   20.02          24      0.00    683.00    683.00     3.938     68.41    0.0   58.4
  CC-S1                   21.46          27      0.00    200.00    200.00     1.236      8.97    0.0    0.0
  CC-S2                   16.91          32      0.00    200.00    200.00     0.974      7.21    0.0    0.0
  JK-R1                    4.01          18      0.00   1000.00   1000.00     1.156     10.35    0.0    0.0
  JK-R2                    4.30          22      0.00   1000.00   1000.00     1.238     10.52    0.0    0.0
  JK-S                     8.50          29      0.00    300.00    300.00     0.734     13.08    0.0    0.0
  XR-1                    97.91           2      0.00     95.00     95.00     2.679      9.62    0.0    0.0
  XR-2                    93.93           2      0.00     95.00     95.00     2.570      8.77    0.0    0.0
  XR-3                     0.00           1      0.00     95.00     95.00     0.000      0.00    0.0    0.0
  XR-4                     0.00           1      0.00     95.00     95.00     0.000      0.00    0.0    0.0
  

  Analysis begun on:  Thu Jun 15 19:59:40 2023
  Analysis ended on:  Thu Jun 15 19:59:49 2023
  Total elapsed time: 00:00:09