
  OWA STORM WATER MANAGEMENT MODEL - VERSION v5.1.14 (OWA 2022-07-31)
  --------------------------------------------------------------

  WARNING 04: minimum elevation drop used for Conduit WS02004404WS02004405
  WARNING 03: negative offset ignored for Link YS02001904YS02001907
  
  *********************************************************
  NOTE: The summary statistics displayed in this report are
  based on results found at every computational time step,  
  not just on results from each reporting time step.
  *********************************************************
  
  ****************
  Analysis Options
  ****************
  Flow Units ............... LPS
  Process Models:
    Rainfall/Runoff ........ YES
    RDII ................... NO
    Snowmelt ............... NO
    Groundwater ............ NO
    Flow Routing ........... YES
    Ponding Allowed ........ NO
    Water Quality .......... NO
  Infiltration Method ...... HORTON
  Flow Routing Method ...... DYNWAVE
  Surcharge Method ......... EXTRAN
  Starting Date ............ 08/28/2015 08:00:00
  Ending Date .............. 08/28/2015 16:00:00
  Antecedent Dry Days ...... 8.0
  Report Time Step ......... 00:01:00
  Wet Time Step ............ 00:01:00
  Dry Time Step ............ 00:01:00
  Routing Time Step ........ 30.00 sec
  Variable Time Step ....... YES
  Maximum Trials ........... 8
  Number of Threads ........ 2
  Head Tolerance ........... 0.001500 m
  
  
  **************************        Volume         Depth
  Runoff Quantity Continuity     hectare-m            mm
  **************************     ---------       -------
  Initial LID Storage ......         0.072         1.184
  Total Precipitation ......         2.627        43.363
  Evaporation Loss .........         0.000         0.000
  Infiltration Loss ........         0.195         3.212
  Surface Runoff ...........         1.942        32.060
  Final Storage ............         0.564         9.303
  Continuity Error (%) .....        -0.061
  
  
  **************************        Volume        Volume
  Flow Routing Continuity        hectare-m      10^6 ltr
  **************************     ---------     ---------
  Dry Weather Inflow .......         0.630         6.296
  Wet Weather Inflow .......         1.942        19.420
  Groundwater Inflow .......         0.000         0.000
  RDII Inflow ..............         0.000         0.000
  External Inflow ..........         0.105         1.045
  External Outflow .........         2.047        20.465
  Flooding Loss ............         0.620         6.203
  Evaporation Loss .........         0.000         0.000
  Exfiltration Loss ........         0.000         0.000
  Initial Stored Volume ....         0.303         3.031
  Final Stored Volume ......         0.321         3.206
  Continuity Error (%) .....        -0.274
  
  
  *************************
  Highest Continuity Errors
  *************************
  Node YS02001884 (5.16%)
  Node YS02001583 (-5.12%)
  Node WS02006256 (-4.72%)
  Node HS02004842 (2.24%)
  Node YS02001774 (1.92%)
  
  
  ***************************
  Time-Step Critical Elements
  ***************************
  Link WS02006280WS02006229 (41.42%)
  Link WS02006252WS02006251 (34.75%)
  Link WS02006238WS02006235 (6.82%)
  Link YS02001791YS02001793 (3.35%)
  Link WS02003066WSF200 (2.68%)
  
  
  ********************************
  Highest Flow Instability Indexes
  ********************************
  Link WS02006113WS02006111 (26)
  Link WS02004404WS02004405 (18)
  Link WS02006256WS02006235 (17)
  Link WS02004403WS02004404 (15)
  Link WS02006238WS02006235 (14)
  
  
  *************************
  Routing Time Step Summary
  *************************
  Minimum Time Step           :     0.01 sec
  Average Time Step           :     2.17 sec
  Maximum Time Step           :     6.46 sec
  Percent in Steady State     :    -0.00
  Average Iterations per Step :     3.20
  Percent Not Converging      :    12.61
  
  
  ***************************
  Subcatchment Runoff Summary
  ***************************
  
  ------------------------------------------------------------------------------------------------------------------------------
                            Total      Total      Total      Total     Imperv       Perv      Total       Total     Peak  Runoff
                           Precip      Runon       Evap      Infil     Runoff     Runoff     Runoff      Runoff   Runoff   Coeff
  Subcatchment                 mm         mm         mm         mm         mm         mm         mm    10^6 ltr      LPS
  ------------------------------------------------------------------------------------------------------------------------------
  sub0                      43.36       0.00       0.00       0.94      39.08       2.10      41.18        0.03    28.41   0.950
  sub1                      43.36       0.00       0.00       1.43      33.48       2.85      36.32        0.24   174.33   0.838
  sub2                      43.36       0.00       0.00       6.58      24.46       8.28      32.74        0.31   180.04   0.755
  sub3                      43.36       0.00       0.00       7.01      24.22       7.71      31.93        0.72   384.36   0.736
  sub4                      43.36       0.00       0.00       1.58      32.93       2.64      35.57        0.74   416.57   0.820
  sub5                      43.36       0.00       0.00       0.81      32.39       1.71      34.10        0.39   283.26   0.786
  sub7                      43.36       0.00       0.00       0.95      29.61       2.07      31.68        0.11    86.76   0.730
  sub8                      43.36       0.00       0.00       0.93      28.77       2.00      30.77        0.20   155.73   0.710
  sub9                      43.36       0.00       0.00       0.91      27.89       1.94      29.83        0.14   113.45   0.688
  sub10                     43.36       0.00       0.00       0.91      31.38       1.91      33.29        0.37   275.58   0.768
  sub11                     43.36       0.00       0.00       0.83      29.16       1.79      30.96        0.36   287.27   0.714
  sub12                     43.36       0.00       0.00       1.45      29.65       3.13      32.78        0.29   243.68   0.756
  sub14                     43.36       0.00       0.00       0.90      27.62       1.92      29.54        0.28   221.49   0.681
  sub15                     43.36       0.00       0.00       4.17      24.83       6.83      31.65        0.54   387.43   0.730
  sub16                     43.36       0.00       0.00       4.40      24.22       7.92      32.14        0.34   265.68   0.741
  sub17                     43.36       0.00       0.00       4.72      26.73       8.27      35.00        0.30   230.26   0.807
  sub22                     43.36       0.00       0.00       7.40      23.18      10.66      33.84        2.14  1424.69   0.780
  sub23                     43.36       0.00       0.00       5.56      23.87       8.92      32.79        1.56  1127.09   0.756
  sub60                     43.36       0.00       0.00       1.29      28.53       2.72      31.25        0.41   331.83   0.721
  sub61                     43.36       0.00       0.00       1.99      28.50       4.04      32.54        0.60   483.46   0.750
  sub62                     43.36       0.00       0.00       0.88      30.38       1.85      32.23        0.88   658.14   0.743
  sub63                     43.36       0.00       0.00       3.69      24.41       6.61      31.02        0.70   543.59   0.715
  sub64                     43.36       0.00       0.00       1.76      27.79       3.30      31.09        0.75   531.13   0.717
  sub65                     43.36       0.00       0.00       1.62      29.98       3.01      33.00        0.91   615.86   0.761
  sub66                     43.36       0.00       0.00       4.34      23.58       5.64      29.22        1.36   785.54   0.674
  sub67                     43.36       0.00       0.00       0.87      31.15       1.93      33.08        0.62   515.20   0.763
  sub68                     43.36       0.00       0.00       1.53      27.51       3.10      30.60        0.84   658.01   0.706
  sub69                     43.36       0.00       0.00       1.39      29.13       3.76      32.90        1.22   797.80   0.759
  sub70                     43.36       0.00       0.00       4.73      23.32       7.34      30.66        0.89   451.77   0.707
  sub71                     43.36       0.00       0.00       0.81      27.59       1.67      29.26        0.77   538.13   0.675
  sub72                     43.36       0.00       0.00       0.78      29.79       1.54      31.33        0.43   273.96   0.723
  

  ***********************
  LID Performance Summary
  ***********************

  --------------------------------------------------------------------------------------------------------------------
                                         Total      Evap     Infil   Surface    Drain    Initial     Final  Continuity
                                        Inflow      Loss      Loss   Outflow   Outflow   Storage   Storage       Error
  Subcatchment      LID Control             mm        mm        mm        mm        mm        mm        mm           %
  --------------------------------------------------------------------------------------------------------------------
  sub1              GreenRoof            43.36      0.00      0.00      0.00      0.00      7.05     50.52       -0.21
  sub2              GreenRoof            43.36      0.00      0.00      0.00      0.00      7.05     50.52       -0.21
  sub3              GreenRoof            43.36      0.00      0.00      0.00      0.00      7.05     50.52       -0.21
  sub4              GreenRoof            43.36      0.00      0.00      0.00      0.00      7.05     50.52       -0.21
  sub5              GreenRoof            43.36      0.00      0.00      0.00      0.00      7.05     50.52       -0.21
  sub7              GreenRoof            43.36      0.00      0.00      0.00      0.00      7.05     50.52       -0.21
  sub8              GreenRoof            43.36      0.00      0.00      0.00      0.00      7.05     50.52       -0.21
  sub9              GreenRoof            43.36      0.00      0.00      0.00      0.00      7.05     50.52       -0.21
  sub10             GreenRoof            43.36      0.00      0.00      0.00      0.00      7.05     50.52       -0.21
  sub11             GreenRoof            43.36      0.00      0.00      0.00      0.00      7.05     50.52       -0.21
  sub12             GreenRoof            43.36      0.00      0.00      0.00      0.00      7.05     50.52       -0.21
  sub14             GreenRoof            43.36      0.00      0.00      0.00      0.00      7.05     50.52       -0.21
  sub15             GreenRoof            43.36      0.00      0.00      0.00      0.00      7.05     50.52       -0.21
  sub16             GreenRoof            43.36      0.00      0.00      0.00      0.00      7.05     50.52       -0.21
  sub17             GreenRoof            43.36      0.00      0.00      0.00      0.00      7.05     50.52       -0.21
  sub22             GreenRoof            43.36      0.00      0.00      0.00      0.00      7.05     50.52       -0.21
  sub23             GreenRoof            43.36      0.00      0.00      0.00      0.00      7.05     50.52       -0.21
  sub60             GreenRoof            43.36      0.00      0.00      0.00      0.00      7.05     50.52       -0.21
  sub61             GreenRoof            43.36      0.00      0.00      0.00      0.00      7.05     50.52       -0.21
  sub62             GreenRoof            43.36      0.00      0.00      0.00      0.00      7.05     50.52       -0.21
  sub63             GreenRoof            43.36      0.00      0.00      0.00      0.00      7.05     50.52       -0.21
  sub64             GreenRoof            43.36      0.00      0.00      0.00      0.00      7.05     50.52       -0.21
  sub65             GreenRoof            43.36      0.00      0.00      0.00      0.00      7.05     50.52       -0.21
  sub66             GreenRoof            43.36      0.00      0.00      0.00      0.00      7.05     50.52       -0.21
  sub67             GreenRoof            43.36      0.00      0.00      0.00      0.00      7.05     50.52       -0.21
  sub68             GreenRoof            43.36      0.00      0.00      0.00      0.00      7.05     50.52       -0.21
  sub69             GreenRoof            43.36      0.00      0.00      0.00      0.00      7.05     50.52       -0.21
  sub70             GreenRoof            43.36      0.00      0.00      0.00      0.00      7.05     50.52       -0.21
  sub71             GreenRoof            43.36      0.00      0.00      0.00      0.00      7.05     50.52       -0.21
  sub72             GreenRoof            43.36      0.00      0.00      0.00      0.00      7.05     50.52       -0.21
  
  ******************
  Node Depth Summary
  ******************
  
  ---------------------------------------------------------------------------------
                                 Average  Maximum  Maximum  Time of Max    Reported
                                   Depth    Depth      HGL   Occurrence   Max Depth
  Node                 Type       Meters   Meters   Meters  days hr:min      Meters
  ---------------------------------------------------------------------------------
  HS02004478           JUNCTION     0.17     1.60    10.83     0  02:23        1.51
  HS02004479           JUNCTION     0.24     1.71    10.91     0  02:23        1.66
  HS02004480           JUNCTION     0.21     1.69    10.93     0  02:23        1.62
  HS02004770           JUNCTION     0.22     1.42    11.25     0  02:20        1.42
  HS02004777           JUNCTION     0.24     1.48    11.28     0  02:20        1.45
  HS02004785           JUNCTION     0.14     1.49    11.39     0  02:20        1.33
  HS02004788           JUNCTION     0.11     1.42    11.32     0  02:20        1.32
  HS02004792           JUNCTION     0.15     1.60    11.12     0  02:20        1.60
  HS02004799           JUNCTION     0.27     1.76    10.97     0  02:23        1.76
  HS02004802           JUNCTION     0.26     1.82    10.95     0  02:23        1.66
  HS02004807           JUNCTION     0.23     1.92    11.09     0  02:23        1.70
  HS02004817           JUNCTION     0.51     2.44    11.29     0  02:23        2.06
  HS02004824           JUNCTION     0.11     2.01    11.41     0  02:23        1.55
  HS02004830           JUNCTION     0.11     2.03    11.50     0  02:23        1.51
  HS02004837           JUNCTION     0.09     1.99    11.57     0  02:23        1.43
  HS02004842           JUNCTION     0.37     2.22    11.49     0  02:23        1.75
  HS02004848           JUNCTION     0.07     2.07    11.67     0  02:23        1.43
  HS02004852           JUNCTION     0.08     2.12    11.63     0  02:23        1.47
  HS02004856           JUNCTION     0.13     2.07    11.50     0  02:23        1.52
  HS02004862           JUNCTION     0.09     2.00    11.38     0  02:23        1.50
  HS02004870           JUNCTION     0.08     1.95    11.24     0  02:23        1.49
  HS02004876           JUNCTION     0.13     2.13    11.16     0  02:23        1.61
  HS02004881           JUNCTION     0.07     1.75    10.78     0  02:23        1.43
  HS02004901           JUNCTION     0.22     1.42    11.24     0  02:20        1.42
  WS02001211           JUNCTION     0.61     0.80     5.64     0  02:29        0.80
  WS02001212           JUNCTION     0.35     0.56     5.63     0  02:28        0.56
  WS02001213           JUNCTION     0.55     0.86     5.62     0  02:27        0.86
  WS02003059           JUNCTION     0.61     0.93     5.62     0  02:27        0.93
  WS02003060           JUNCTION     0.35     0.68     5.61     0  02:27        0.68
  WS02003066           JUNCTION     0.20     0.45     6.00     0  02:25        0.45
  WS02003067           JUNCTION     0.49     0.88     6.20     0  02:25        0.88
  WS02003069           JUNCTION     0.39     0.77     5.35     0  02:28        0.77
  WS02003072           JUNCTION     0.45     0.80     5.17     0  02:28        0.80
  WS02003073           JUNCTION     0.27     0.51     4.57     0  02:29        0.51
  WS02004138           JUNCTION     0.13     0.14     7.39     0  00:32        0.14
  WS02004139           JUNCTION     0.54     0.74     5.65     0  02:28        0.74
  WS02004401           JUNCTION     0.68     1.91     7.91     0  02:18        1.80
  WS02004402           JUNCTION     0.70     1.84     7.80     0  02:18        1.74
  WS02004403           JUNCTION     0.71     1.74     7.67     0  02:18        1.68
  WS02004404           JUNCTION     0.77     1.73     7.58     0  02:18        1.69
  WS02004405           JUNCTION     0.76     1.66     7.51     0  02:18        1.64
  WS02004406           JUNCTION     0.76     1.54     7.37     0  02:25        1.52
  WS02004407           JUNCTION     0.22     0.89     7.20     0  02:25        0.88
  WS02004409           JUNCTION     0.46     1.36     7.13     0  02:25        1.35
  WS02004410           JUNCTION     0.47     1.28     7.00     0  02:25        1.28
  WS02004411           JUNCTION     0.48     1.19     6.87     0  02:25        1.18
  WS02004412           JUNCTION     0.48     1.09     6.73     0  02:25        1.09
  WS02004413           JUNCTION     0.62     1.14     6.61     0  02:25        1.14
  WS02006109           JUNCTION     0.86     2.64     9.26     0  02:18        2.64
  WS02006110           JUNCTION     0.82     2.70     9.28     0  02:18        2.70
  WS02006111           JUNCTION     0.34     1.86     8.56     0  02:18        1.86
  WS02006112           JUNCTION     0.88     2.38     8.26     0  02:18        2.29
  WS02006113           JUNCTION     0.42     2.21     9.10     0  02:18        2.21
  WS02006115           JUNCTION     0.60     2.00     8.14     0  02:18        1.89
  WS02006116           JUNCTION     0.67     2.00     8.04     0  02:18        1.88
  WS02006228           JUNCTION     0.90     3.03     9.68     0  02:26        3.03
  WS02006229           JUNCTION     0.90     3.21     9.91     0  02:23        3.21
  WS02006230           JUNCTION     0.84     2.65     9.39     0  02:17        2.65
  WS02006231           JUNCTION     0.59     2.24     9.36     0  02:18        2.24
  WS02006232           JUNCTION     0.68     2.18     9.22     0  02:17        2.18
  WS02006234           JUNCTION     0.57     1.96     9.12     0  02:15        1.96
  WS02006235           JUNCTION     0.58     2.00     9.16     0  03:00        1.93
  WS02006238           JUNCTION     0.61     2.07     9.22     0  03:00        2.02
  WS02006239           JUNCTION     0.55     1.98     9.19     0  03:00        1.98
  WS02006240           JUNCTION     0.50     1.79     9.09     0  02:18        1.79
  WS02006242           JUNCTION     0.55     1.55     8.82     0  02:02        1.55
  WS02006243           JUNCTION     0.44     1.48     8.90     0  02:06        1.37
  WS02006245           JUNCTION     0.43     1.32     8.80     0  03:00        1.27
  WS02006247           JUNCTION     0.44     1.27     8.77     0  02:06        1.23
  WS02006248           JUNCTION     0.39     1.10     8.69     0  02:06        1.10
  WS02006249           JUNCTION     0.41     1.09     8.69     0  02:06        1.09
  WS02006251           JUNCTION     0.46     2.20     9.87     0  02:23        2.08
  WS02006252           JUNCTION     0.30     1.50     9.74     0  00:00        1.50
  WS02006253           JUNCTION     0.51     2.96    10.60     0  02:23        2.73
  WS02006256           JUNCTION     0.89     2.35     9.28     0  00:00        2.35
  WS02006280           JUNCTION     0.22     1.73    10.00     0  02:23        1.71
  WS02006284           JUNCTION     0.48     1.94    10.34     0  02:23        1.89
  WS02006287           JUNCTION     0.23     1.75    10.71     0  02:23        1.68
  WSF200               JUNCTION     0.20     0.51     5.75     0  02:26        0.51
  YS02001580           JUNCTION     0.04     1.05     9.59     0  02:20        0.77
  YS02001583           JUNCTION     0.07     0.99     9.49     0  02:20        0.84
  YS02001586           JUNCTION     0.13     1.13     9.30     0  02:20        1.13
  YS02001590           JUNCTION     0.21     1.40     9.26     0  02:20        1.37
  YS02001593           JUNCTION     0.14     1.33     9.19     0  02:20        1.29
  YS02001596           JUNCTION     0.19     1.68     9.10     0  02:20        1.65
  YS02001600           JUNCTION     0.25     1.87     9.00     0  02:20        1.86
  YS02001601           JUNCTION     0.43     2.06     8.90     0  02:20        2.06
  YS02001602           JUNCTION     0.36     1.87     8.77     0  02:20        1.87
  YS02001605           JUNCTION     0.33     1.78     8.68     0  02:26        1.78
  YS02001607           JUNCTION     0.33     1.65     8.49     0  02:26        1.65
  YS02001610           JUNCTION     0.37     1.68     8.48     0  02:20        1.68
  YS02001613           JUNCTION     0.33     1.66     8.50     0  02:23        1.65
  YS02001616           JUNCTION     0.27     1.59     8.51     0  02:26        1.59
  YS02001619           JUNCTION     0.25     1.58     8.51     0  02:26        1.58
  YS02001622           JUNCTION     0.24     1.56     8.47     0  02:26        1.56
  YS02001625           JUNCTION     0.48     1.78     8.38     0  02:22        1.78
  YS02001629           JUNCTION     0.34     1.85     8.40     0  02:24        1.85
  YS02001633           JUNCTION     0.42     2.00     8.45     0  02:26        1.92
  YS02001641           JUNCTION     0.40     1.97     8.40     0  02:26        1.79
  YS02001644           JUNCTION     0.40     1.92     8.35     0  02:25        1.76
  YS02001647           JUNCTION     0.19     1.72     8.33     0  02:25        1.49
  YS02001649           JUNCTION     0.21     1.84     8.23     0  02:25        1.61
  YS02001652           JUNCTION     0.11     1.69     8.29     0  02:25        1.44
  YS02001655           JUNCTION     0.08     1.60     8.45     0  02:25        1.24
  YS02001658           JUNCTION     0.06     1.46     8.60     0  02:25        0.97
  YS02001661           JUNCTION     0.11     0.74     8.15     0  02:26        0.68
  YS02001664           JUNCTION     0.04     0.28     8.20     0  02:25        0.28
  YS02001745           JUNCTION     0.04     0.49     8.01     0  02:26        0.49
  YS02001748           JUNCTION     0.05     0.92     8.00     0  02:26        0.79
  YS02001751           JUNCTION     0.06     1.49     8.37     0  02:25        1.00
  YS02001754           JUNCTION     0.08     1.58     8.19     0  02:25        1.28
  YS02001757           JUNCTION     0.21     1.74     8.00     0  02:25        1.56
  YS02001759           JUNCTION     0.16     1.69     8.06     0  02:25        1.50
  YS02001762           JUNCTION     0.15     1.71     8.11     0  02:25        1.48
  YS02001765           JUNCTION     0.14     1.73     8.18     0  02:24        1.45
  YS02001767           JUNCTION     0.14     1.78     8.27     0  02:24        1.43
  YS02001770           JUNCTION     0.15     1.88     8.38     0  02:24        1.45
  YS02001774           JUNCTION     0.21     1.96     8.38     0  02:24        1.53
  YS02001779           JUNCTION     0.06     1.68     8.37     0  02:24        1.26
  YS02001783           JUNCTION     0.18     1.31     7.45     0  02:23        1.22
  YS02001784           JUNCTION     0.20     1.18     7.25     0  02:23        1.12
  YS02001786           JUNCTION     0.17     0.92     6.95     0  02:23        0.87
  YS02001788           JUNCTION     0.12     0.62     6.60     0  02:26        0.62
  YS02001790           JUNCTION     0.15     0.72     6.36     0  02:27        0.71
  YS02001791           JUNCTION     0.10     0.43     5.90     0  02:25        0.42
  YS02001793           JUNCTION     0.05     0.23     5.06     0  02:24        0.22
  YS02001882           JUNCTION     0.23     1.73     8.44     0  02:23        1.61
  YS02001884           JUNCTION     0.31     1.81     8.42     0  02:23        1.72
  YS02001887           JUNCTION     0.38     1.85     8.38     0  02:23        1.79
  YS02001890           JUNCTION     0.41     1.81     8.32     0  02:23        1.81
  YS02001895           JUNCTION     0.20     1.57     8.32     0  02:23        1.57
  YS02001898           JUNCTION     0.21     1.58     8.31     0  02:23        1.57
  YS02001901           JUNCTION     0.31     1.70     8.31     0  02:26        1.70
  YS02001904           JUNCTION     0.29     1.64     8.27     0  02:24        1.64
  YS02001907           JUNCTION     0.58     1.96     8.25     0  02:23        1.96
  YS02001910           JUNCTION     0.40     1.96     8.47     0  02:24        1.83
  YS02001915           JUNCTION     0.23     1.91     8.63     0  02:24        1.70
  YS02001918           JUNCTION     0.10     1.81     8.88     0  02:24        1.40
  YS02001920           JUNCTION     0.18     2.14     9.15     0  02:24        1.48
  YS02001923           JUNCTION     0.07     2.03     9.29     0  02:24        1.25
  YS02001926           JUNCTION     0.12     1.90     9.35     0  02:24        1.10
  YS02001929           JUNCTION     0.06     1.72     9.41     0  02:24        0.90
  YS02006553           JUNCTION     0.58     1.98     8.27     0  02:23        1.97
  YS02006556           JUNCTION     0.56     1.97     8.28     0  02:23        1.93
  YS02006558           JUNCTION     0.60     2.02     8.28     0  02:23        1.97
  YS02006561           JUNCTION     0.11     1.02     7.68     0  02:23        0.90
  YS02163301           JUNCTION     0.36     1.91     8.43     0  02:26        1.85
  YS02163601           JUNCTION     0.45     2.03     8.43     0  02:26        1.89
  YS02164001           JUNCTION     0.39     1.96     8.42     0  02:26        1.79
  YSB1154              JUNCTION     0.36     1.86    10.92     0  02:24        1.86
  YSB1171              JUNCTION     0.50     1.95    10.85     0  02:23        1.95
  YSB1174              JUNCTION     0.32     1.78    10.89     0  02:23        1.77
  YSB6556              JUNCTION     0.27     1.72    10.89     0  02:24        1.72
  CC-1                 OUTFALL      0.00     0.00     0.00     0  00:00        0.00
  CC-2                 OUTFALL      0.00     0.00     0.00     0  00:00        0.00
  JK-1                 OUTFALL      0.00     0.00     0.00     0  00:00        0.00
  JK-2                 OUTFALL      0.00     0.00     0.00     0  00:00        0.00
  WSC                  OUTFALL      0.26     0.51     1.18     0  02:29        0.51
  CC-storage           STORAGE      0.58     1.06     6.56     0  02:41        1.06
  JK-storage           STORAGE      1.32     3.86     4.66     0  02:20        3.86
  XR-storage           STORAGE      7.72     9.26     7.26     0  08:00        9.26
  
  
  *******************
  Node Inflow Summary
  *******************
  
  -------------------------------------------------------------------------------------------------
                                  Maximum  Maximum                  Lateral       Total        Flow
                                  Lateral    Total  Time of Max      Inflow      Inflow     Balance
                                   Inflow   Inflow   Occurrence      Volume      Volume       Error
  Node                 Type           LPS      LPS  days hr:min    10^6 ltr    10^6 ltr     Percent
  -------------------------------------------------------------------------------------------------
  HS02004478           JUNCTION      0.00  2249.59     0  02:25           0           6      -0.011
  HS02004479           JUNCTION      0.00   451.41     0  02:23           0       0.604       0.135
  HS02004480           JUNCTION      0.00  2118.96     0  02:21           0        4.65       0.062
  HS02004770           JUNCTION   1127.09  1127.09     0  02:25        1.56        1.75       0.176
  HS02004777           JUNCTION      0.03   752.52     0  02:20    0.000864         1.4       0.371
  HS02004785           JUNCTION      0.15   770.55     0  02:20     0.00432         1.4       0.035
  HS02004788           JUNCTION    389.10   859.97     0  02:20       0.593        1.99      -0.011
  HS02004792           JUNCTION   1424.97  2153.71     0  02:25        2.15        4.14       0.009
  HS02004799           JUNCTION    221.49  1774.61     0  02:21       0.281        4.06       0.062
  HS02004802           JUNCTION      0.00   747.39     0  02:25           0        1.38       0.287
  HS02004807           JUNCTION    287.27   746.24     0  02:25        0.36        1.42       0.289
  HS02004817           JUNCTION      0.60   474.14     0  02:26      0.0173        1.12       1.480
  HS02004824           JUNCTION    416.62   653.91     0  02:21       0.743        1.26       0.042
  HS02004830           JUNCTION      0.15   661.25     0  02:20     0.00432       0.667       0.196
  HS02004837           JUNCTION    281.93   841.93     0  02:21        0.55       0.895       0.089
  HS02004842           JUNCTION      0.00   840.87     0  02:21           0        0.58       2.291
  HS02004848           JUNCTION    384.36  1090.76     0  02:22       0.719        1.15      -0.007
  HS02004852           JUNCTION      0.00  1081.84     0  02:23           0        1.01      -0.008
  HS02004856           JUNCTION    113.45  1183.01     0  02:23       0.143        1.16       0.023
  HS02004862           JUNCTION    180.24  1236.67     0  02:23       0.311        1.47      -0.020
  HS02004870           JUNCTION    155.73  1343.80     0  02:23       0.197        1.66      -0.014
  HS02004876           JUNCTION    174.33  1336.34     0  02:23       0.242         1.9       0.038
  HS02004881           JUNCTION     86.76  1415.36     0  02:23       0.107        2.01       0.022
  HS02004901           JUNCTION    265.68   480.81     0  02:26       0.336       0.469       0.385
  WS02001211           JUNCTION      7.35   206.19     0  02:51       0.212        5.44       0.611
  WS02001212           JUNCTION      0.00   214.67     0  02:51           0        5.41       0.290
  WS02001213           JUNCTION      0.00   221.20     0  02:52           0        5.39       0.333
  WS02003059           JUNCTION      0.00   228.02     0  02:51           0        5.38       0.596
  WS02003060           JUNCTION     16.53  1476.73     0  02:27       0.476        12.2       0.120
  WS02003066           JUNCTION      0.00  1277.97     0  02:25           0        6.42       0.024
  WS02003067           JUNCTION      0.00  1277.56     0  02:25           0        6.42       0.068
  WS02003069           JUNCTION      0.32  1476.28     0  02:27     0.00922        12.2       0.127
  WS02003072           JUNCTION      0.00  1476.08     0  02:28           0        12.2       0.171
  WS02003073           JUNCTION      1.82  1477.92     0  02:28      0.0524        12.2       0.178
  WS02004138           JUNCTION      0.00   380.00     0  00:00           0        5.25       0.052
  WS02004139           JUNCTION      0.32   190.32     0  00:32     0.00924        5.26       0.509
  WS02004401           JUNCTION      0.00  1278.83     0  02:25           0        6.53       0.166
  WS02004402           JUNCTION      0.00  1278.78     0  02:25           0        6.52       0.167
  WS02004403           JUNCTION      0.00  1279.54     0  02:25           0        6.51       0.164
  WS02004404           JUNCTION      0.16  1279.46     0  02:25     0.00467         6.5       0.158
  WS02004405           JUNCTION      0.04  1280.38     0  02:25      0.0011        6.49       0.180
  WS02004406           JUNCTION      0.00  1279.93     0  02:25           0        6.48       0.331
  WS02004407           JUNCTION      0.00  1279.18     0  02:25           0        6.46       0.024
  WS02004409           JUNCTION      0.00  1277.28     0  02:25           0        6.46       0.049
  WS02004410           JUNCTION      0.00  1277.74     0  02:25           0        6.45       0.077
  WS02004411           JUNCTION      0.00  1277.54     0  02:25           0        6.45       0.096
  WS02004412           JUNCTION      0.00  1277.59     0  02:25           0        6.44       0.125
  WS02004413           JUNCTION      0.00  1277.56     0  02:25           0        6.44       0.217
  WS02006109           JUNCTION      1.23  1262.74     0  02:25      0.0354        6.37       0.164
  WS02006110           JUNCTION      0.00  1117.33     0  02:33           0        6.27       0.127
  WS02006111           JUNCTION      0.00  1117.56     0  02:33           0        6.26       0.016
  WS02006112           JUNCTION    230.26  1278.25     0  02:25         0.3        6.56       0.292
  WS02006113           JUNCTION      0.00  1117.33     0  02:33           0        6.26       0.028
  WS02006115           JUNCTION      0.00  1278.51     0  02:25           0        6.54       0.113
  WS02006116           JUNCTION      0.00  1279.24     0  02:25           0        6.53       0.080
  WS02006228           JUNCTION      0.00  1261.67     0  02:25           0        6.34       0.082
  WS02006229           JUNCTION      0.00  2252.49     0  02:25           0        7.68       0.122
  WS02006230           JUNCTION     10.28  1000.14     0  02:25       0.296        3.05       0.292
  WS02006231           JUNCTION      0.00   453.30     0  02:21           0        2.29      -0.160
  WS02006232           JUNCTION      0.00   453.44     0  02:21           0         2.3       0.243
  WS02006234           JUNCTION      0.00   453.08     0  02:21           0        2.29      -0.436
  WS02006235           JUNCTION      0.00   415.82     0  03:15           0        2.32       0.489
  WS02006238           JUNCTION      0.00   415.97     0  02:29           0        2.14      -0.163
  WS02006239           JUNCTION      0.00   415.24     0  02:29           0        2.09      -0.131
  WS02006240           JUNCTION      0.00   414.96     0  02:26           0        2.06      -0.026
  WS02006242           JUNCTION      0.00   415.00     0  02:29           0        2.05      -0.042
  WS02006243           JUNCTION      0.00   371.62     0  00:05           0        1.83      -0.024
  WS02006245           JUNCTION      0.00   383.09     0  00:05           0        1.84       0.704
  WS02006247           JUNCTION      0.00   385.59     0  00:04           0        1.84      -0.014
  WS02006248           JUNCTION      0.00   390.96     0  00:04           0        1.99      -0.273
  WS02006249           JUNCTION      0.00  1336.07     0  02:23           0        3.75       0.337
  WS02006251           JUNCTION      0.08  1443.98     0  02:23     0.00222        3.82      -0.021
  WS02006252           JUNCTION      0.00   400.00     0  00:00           0        1.76      -0.953
  WS02006253           JUNCTION     28.41  1442.75     0  02:23      0.0334        2.11       0.080
  WS02006256           JUNCTION      0.00   300.00     0  00:00           0       0.437      -4.508
  WS02006280           JUNCTION      0.00  2250.78     0  02:25           0        5.98       0.009
  WS02006284           JUNCTION      0.10  2250.72     0  02:25     0.00275        5.98      -0.012
  WS02006287           JUNCTION      0.00  2251.11     0  02:25           0        5.98       0.014
  WSF200               JUNCTION      0.00  1278.20     0  02:26           0        6.42       0.012
  YS02001580           JUNCTION      0.00   116.76     0  02:20           0     0.00405      -4.286
  YS02001583           JUNCTION      0.00   171.83     0  02:20           0      0.0149      -4.868
  YS02001586           JUNCTION    451.77   452.23     0  02:26       0.886       0.897       0.146
  YS02001590           JUNCTION      0.00   317.83     0  02:30           0       0.832      -0.048
  YS02001593           JUNCTION      0.00   317.95     0  02:30           0       0.832       0.020
  YS02001596           JUNCTION      0.00   317.95     0  02:31           0       0.832       0.007
  YS02001600           JUNCTION      0.00   317.96     0  02:24           0       0.832       0.013
  YS02001601           JUNCTION    797.80  1115.19     0  02:25        1.22        2.05       0.038
  YS02001602           JUNCTION      0.00   517.25     0  02:20           0        1.59       0.021
  YS02001605           JUNCTION      0.00   516.72     0  02:20           0        1.55       0.014
  YS02001607           JUNCTION      0.00   516.05     0  02:20           0        1.55       0.118
  YS02001610           JUNCTION      0.00   518.37     0  02:19           0        1.55       0.145
  YS02001613           JUNCTION      0.00   519.22     0  02:19           0        1.44       0.111
  YS02001616           JUNCTION      0.00   515.06     0  02:20           0        1.44       0.030
  YS02001619           JUNCTION    785.54   939.85     0  02:22        1.36         2.8      -0.003
  YS02001622           JUNCTION      0.00   938.62     0  02:22           0         2.8       0.005
  YS02001625           JUNCTION      0.00   938.24     0  02:22           0         2.8       0.316
  YS02001629           JUNCTION      0.00   938.60     0  02:22           0        2.63       0.035
  YS02001633           JUNCTION    616.06  1427.30     0  02:23       0.914        3.55       0.100
  YS02001641           JUNCTION      0.00  1419.57     0  02:23           0        3.55       0.082
  YS02001644           JUNCTION    531.16  1854.01     0  02:23       0.748        4.29       0.077
  YS02001647           JUNCTION      0.00  1853.09     0  02:23           0        4.28       0.008
  YS02001649           JUNCTION      0.00  2154.86     0  02:23           0        4.99       0.009
  YS02001652           JUNCTION      0.00   604.11     0  02:27           0       0.708      -0.117
  YS02001655           JUNCTION      0.15   604.89     0  02:27     0.00443       0.708       0.062
  YS02001658           JUNCTION      0.00   715.62     0  02:25           0       0.704      -0.023
  YS02001661           JUNCTION      0.00   543.97     0  02:25           0       0.704       0.046
  YS02001664           JUNCTION    543.59   543.59     0  02:25       0.704       0.704      -0.007
  YS02001745           JUNCTION    331.83   331.83     0  02:25       0.411       0.411       0.270
  YS02001748           JUNCTION      0.04   489.93     0  02:26      0.0013       0.411      -0.306
  YS02001751           JUNCTION      0.01   473.92     0  02:27    0.000317       0.416       0.031
  YS02001754           JUNCTION      0.26   379.91     0  02:26     0.00749       0.427      -0.229
  YS02001757           JUNCTION      0.00  3281.02     0  02:26           0        6.91       0.098
  YS02001759           JUNCTION    483.50  1200.56     0  02:24       0.598         1.5       0.010
  YS02001762           JUNCTION      0.00   719.02     0  02:24           0       0.901       0.017
  YS02001765           JUNCTION      0.00   709.05     0  02:24           0       0.901      -0.004
  YS02001767           JUNCTION      0.54   700.01     0  02:24      0.0154       0.901       0.004
  YS02001770           JUNCTION    658.29   690.98     0  02:24       0.887       0.928       0.013
  YS02001774           JUNCTION      0.00   308.07     0  02:24           0      0.0587       1.953
  YS02001779           JUNCTION      0.01   313.71     0  02:24    0.000144      0.0173      -2.967
  YS02001783           JUNCTION      0.00  1152.18     0  02:25           0        2.51       0.008
  YS02001784           JUNCTION      1.06  1153.74     0  02:25      0.0305        2.54       0.019
  YS02001786           JUNCTION      0.06  1153.57     0  02:25     0.00162        2.54       0.024
  YS02001788           JUNCTION      0.07  1153.80     0  02:25     0.00204        2.55       0.011
  YS02001790           JUNCTION      0.15  1163.12     0  02:26     0.00446        2.55       0.020
  YS02001791           JUNCTION      0.00  1273.69     0  02:27           0        2.55      -0.009
  YS02001793           JUNCTION      0.00  1228.86     0  02:26           0        2.55       0.007
  YS02001882           JUNCTION      0.00    56.97     0  02:22           0      0.0122       5.294
  YS02001884           JUNCTION      0.00    76.80     0  02:22           0      0.0478       5.443
  YS02001887           JUNCTION    515.65   515.65     0  02:25       0.628       0.661       0.676
  YS02001890           JUNCTION      0.00   515.88     0  02:25           0       0.621       0.822
  YS02001895           JUNCTION      0.00   492.83     0  02:25           0       0.612       0.183
  YS02001898           JUNCTION      0.00   493.69     0  02:25           0       0.611       0.069
  YS02001901           JUNCTION      0.00   494.57     0  02:25           0       0.613       0.523
  YS02001904           JUNCTION      0.00   494.06     0  02:25           0       0.617       0.463
  YS02001907           JUNCTION      0.00  1487.80     0  02:25           0        1.89       0.964
  YS02001910           JUNCTION      0.00   998.16     0  02:25           0        1.28       0.560
  YS02001915           JUNCTION    538.15   997.21     0  02:25       0.766        1.32       0.124
  YS02001918           JUNCTION      0.00   460.32     0  02:25           0       0.582       0.024
  YS02001920           JUNCTION      2.87   459.43     0  02:25      0.0827       0.565       0.150
  YS02001923           JUNCTION      0.04   416.08     0  02:25     0.00109       0.466      -0.289
  YS02001926           JUNCTION      0.05   653.07     0  02:24      0.0015       0.447      -0.032
  YS02001929           JUNCTION    273.96   486.58     0  02:24       0.431       0.434      -0.112
  YS02006553           JUNCTION      0.00   796.35     0  02:32           0        1.69       0.707
  YS02006556           JUNCTION      0.00   797.46     0  02:32           0        1.69       0.479
  YS02006558           JUNCTION    658.89  1162.64     0  02:23       0.868        2.54       0.137
  YS02006561           JUNCTION      0.00  1161.48     0  02:23           0        2.51       0.000
  YS02163301           JUNCTION      0.00   937.30     0  02:22           0        2.64       0.060
  YS02163601           JUNCTION      0.11  1423.88     0  02:23     0.00317        3.55       0.141
  YS02164001           JUNCTION      0.00  1422.47     0  02:23           0        3.54       0.071
  YSB1154              JUNCTION    283.26   283.26     0  02:25       0.386       0.387       0.385
  YSB1171              JUNCTION      0.00   527.81     0  02:25           0       0.681       0.964
  YSB1174              JUNCTION    243.68   243.68     0  02:25       0.286       0.287       0.453
  YSB6556              JUNCTION      0.00   283.24     0  02:25           0       0.388       0.318
  CC-1                 OUTFALL       0.00   683.00     0  00:00           0        3.05       0.000
  CC-2                 OUTFALL       0.00   683.00     0  00:00           0        2.95       0.000
  JK-1                 OUTFALL       0.00  1000.00     0  00:00           0        1.11       0.000
  JK-2                 OUTFALL       0.00  1000.00     0  00:00           0        1.12       0.000
  WSC                  OUTFALL       0.00  1478.43     0  02:29           0        12.2       0.000
  CC-storage           STORAGE       0.00  3283.36     0  02:26           0        9.13      -0.282
  JK-storage           STORAGE       0.00  1264.56     0  02:26           0         2.7      -0.620
  XR-storage           STORAGE     200.00   200.00     0  00:00        5.76        6.36       0.001
  
  
  **********************
  Node Surcharge Summary
  **********************
  
  Surcharging occurs when water rises above the top of the highest conduit.
  ---------------------------------------------------------------------
                                               Max. Height   Min. Depth
                                   Hours       Above Crown    Below Rim
  Node                 Type      Surcharged         Meters       Meters
  ---------------------------------------------------------------------
  HS02004478           JUNCTION        0.24          0.680        0.260
  HS02004479           JUNCTION        0.35          0.910        0.140
  HS02004480           JUNCTION        0.39          0.982        0.118
  HS02004770           JUNCTION        0.31          0.720        0.000
  HS02004777           JUNCTION        0.32          0.780        0.000
  HS02004785           JUNCTION        0.27          0.790        0.000
  HS02004788           JUNCTION        0.26          0.720        0.000
  HS02004792           JUNCTION        0.36          0.900        0.000
  HS02004799           JUNCTION        0.46          1.060        0.000
  HS02004802           JUNCTION        0.39          1.114        0.096
  HS02004807           JUNCTION        0.38          1.220        0.000
  HS02004817           JUNCTION        0.80          1.740        0.000
  HS02004824           JUNCTION        0.27          1.310        0.000
  HS02004830           JUNCTION        0.24          1.330        0.000
  HS02004837           JUNCTION        0.21          1.294        0.046
  HS02004842           JUNCTION        0.32          1.520        0.000
  HS02004848           JUNCTION        0.17          1.370        0.000
  HS02004852           JUNCTION        0.20          1.420        0.000
  HS02004856           JUNCTION        0.17          1.300        0.000
  HS02004862           JUNCTION        0.22          1.300        0.000
  HS02004870           JUNCTION        0.23          1.252        0.148
  HS02004876           JUNCTION        0.29          1.427        0.133
  HS02004881           JUNCTION        0.27          1.046        0.404
  HS02004901           JUNCTION        0.32          0.720        0.000
  WS02004401           JUNCTION        1.06          0.907        0.753
  WS02004402           JUNCTION        1.09          0.839        0.901
  WS02004403           JUNCTION        1.10          0.744        1.286
  WS02004404           JUNCTION        1.23          0.733        2.047
  WS02004405           JUNCTION        1.21          0.663        2.137
  WS02004406           JUNCTION        1.15          0.537        1.913
  WS02004409           JUNCTION        0.63          0.363        1.997
  WS02004410           JUNCTION        0.61          0.276        2.264
  WS02004411           JUNCTION        0.57          0.187        2.343
  WS02004412           JUNCTION        0.48          0.093        2.217
  WS02004413           JUNCTION        0.87          0.137        2.063
  WS02006109           JUNCTION        1.52          1.820        0.000
  WS02006110           JUNCTION        1.28          1.786        0.064
  WS02006111           JUNCTION        0.79          1.048        0.822
  WS02006112           JUNCTION        1.40          1.377        0.303
  WS02006113           JUNCTION        0.81          1.412        0.518
  WS02006115           JUNCTION        0.98          0.987        1.263
  WS02006116           JUNCTION        0.99          0.938        1.352
  WS02006228           JUNCTION        1.52          2.200        0.000
  WS02006229           JUNCTION        0.60          1.032        0.038
  WS02006230           JUNCTION        1.19          1.570        0.000
  WS02006231           JUNCTION        1.20          1.530        0.000
  WS02006232           JUNCTION        1.37          1.480        0.000
  WS02006234           JUNCTION        1.22          1.240        0.000
  WS02006235           JUNCTION        1.24          1.290        0.000
  WS02006238           JUNCTION        1.28          1.352        0.078
  WS02006239           JUNCTION        1.19          1.240        0.050
  WS02006240           JUNCTION        1.16          1.083        0.307
  WS02006242           JUNCTION        1.22          0.820        0.000
  WS02006243           JUNCTION        1.15          0.770        0.000
  WS02006245           JUNCTION        1.12          0.607        0.243
  WS02006247           JUNCTION        1.13          0.564        0.196
  WS02006248           JUNCTION        1.06          0.380        0.000
  WS02006249           JUNCTION        1.09          0.390        0.000
  WS02006251           JUNCTION        0.87          1.173        0.007
  WS02006252           JUNCTION        1.08          1.100        0.000
  WS02006253           JUNCTION        0.88          1.918        0.562
  WS02006256           JUNCTION        6.78          2.050        0.000
  WS02006280           JUNCTION        0.47          0.683        0.097
  WS02006284           JUNCTION        0.41          0.660        0.140
  WS02006287           JUNCTION        0.34          0.754        0.136
  YS02001580           JUNCTION        0.27          0.450        0.000
  YS02001583           JUNCTION        0.28          0.351        0.149
  YS02001586           JUNCTION        0.36          0.510        0.000
  YS02001590           JUNCTION        0.42          0.750        0.000
  YS02001593           JUNCTION        0.42          0.712        0.128
  YS02001596           JUNCTION        0.51          0.952        0.118
  YS02001600           JUNCTION        0.61          1.190        0.000
  YS02001601           JUNCTION        0.92          1.440        0.000
  YS02001602           JUNCTION        0.81          1.270        0.000
  YS02001605           JUNCTION        0.77          1.180        0.000
  YS02001607           JUNCTION        0.37          0.647        0.033
  YS02001610           JUNCTION        0.39          0.680        0.000
  YS02001613           JUNCTION        0.36          0.657        0.043
  YS02001616           JUNCTION        0.33          0.594        0.016
  YS02001619           JUNCTION        0.32          0.581        0.029
  YS02001622           JUNCTION        0.31          0.562        0.058
  YS02001625           JUNCTION        0.46          0.780        0.000
  YS02001629           JUNCTION        0.26          0.470        0.000
  YS02001633           JUNCTION        0.46          0.980        0.080
  YS02001641           JUNCTION        0.38          0.966        0.134
  YS02001644           JUNCTION        0.33          0.920        0.000
  YS02001647           JUNCTION        0.17          0.720        0.180
  YS02001649           JUNCTION        0.20          0.842        0.208
  YS02001652           JUNCTION        0.12          0.661        0.469
  YS02001655           JUNCTION        0.06          0.600        0.600
  YS02001658           JUNCTION        0.01          0.462        0.838
  YS02001751           JUNCTION        0.01          0.487        0.713
  YS02001754           JUNCTION        0.06          0.531        0.619
  YS02001757           JUNCTION        0.19          0.743        0.467
  YS02001759           JUNCTION        0.16          0.694        0.516
  YS02001762           JUNCTION        0.15          0.708        0.442
  YS02001765           JUNCTION        0.13          0.731        0.369
  YS02001767           JUNCTION        0.12          0.778        0.252
  YS02001770           JUNCTION        0.11          0.854        0.066
  YS02001774           JUNCTION        0.14          0.962        0.088
  YS02001779           JUNCTION        0.08          0.680        0.000
  YS02001783           JUNCTION        0.26          0.513        1.087
  YS02001784           JUNCTION        0.24          0.378        1.112
  YS02001786           JUNCTION        0.16          0.119        1.311
  YS02001882           JUNCTION        0.22          0.727        0.103
  YS02001884           JUNCTION        0.23          0.747        0.123
  YS02001887           JUNCTION        0.26          0.797        0.153
  YS02001890           JUNCTION        0.27          0.760        0.000
  YS02001895           JUNCTION        0.21          0.572        0.178
  YS02001898           JUNCTION        0.21          0.547        0.193
  YS02001901           JUNCTION        0.25          0.700        0.170
  YS02001904           JUNCTION        0.24          0.643        0.207
  YS02001907           JUNCTION        0.43          0.950        0.000
  YS02001910           JUNCTION        0.29          0.964        0.136
  YS02001915           JUNCTION        0.22          0.910        0.090
  YS02001918           JUNCTION        0.16          0.810        0.000
  YS02001920           JUNCTION        0.17          1.140        0.000
  YS02001923           JUNCTION        0.01          0.820        0.000
  YS02001926           JUNCTION        0.01          0.900        0.000
  YS02001929           JUNCTION        0.01          0.721        0.059
  YS02006553           JUNCTION        0.44          0.983        0.207
  YS02006556           JUNCTION        0.35          0.930        0.420
  YS02006558           JUNCTION        0.35          0.918        0.482
  YS02006561           JUNCTION        0.12          0.218        0.932
  YS02163301           JUNCTION        0.45          0.913        0.117
  YS02163601           JUNCTION        0.49          1.031        0.049
  YS02164001           JUNCTION        0.39          0.963        0.137
  YSB1154              JUNCTION        0.54          1.164        0.236
  YSB1171              JUNCTION        0.54          1.100        0.000
  YSB1174              JUNCTION        0.49          1.084        0.166
  YSB6556              JUNCTION        0.44          1.021        0.079
  
  
  *********************
  Node Flooding Summary
  *********************
  
  Flooding refers to all water that overflows a node, whether it ponds or not.
  --------------------------------------------------------------------------
                                                             Total   Maximum
                                 Maximum   Time of Max       Flood    Ponded
                        Hours       Rate    Occurrence      Volume     Depth
  Node                 Flooded       LPS   days hr:min    10^6 ltr    Meters
  --------------------------------------------------------------------------
  HS02004770              0.18    586.27      0  02:25       0.220     0.000
  HS02004777              0.01     62.60      0  02:20       0.000     0.000
  HS02004785              0.01    109.69      0  02:20       0.000     0.000
  HS02004788              0.01    228.04      0  02:20       0.001     0.000
  HS02004792              0.18   1008.58      0  02:25       0.353     0.000
  HS02004799              0.04     62.62      0  02:23       0.003     0.000
  HS02004807              0.01     21.53      0  02:23       0.000     0.000
  HS02004817              0.01     12.47      0  02:23       0.000     0.000
  HS02004824              0.01     16.09      0  02:23       0.000     0.000
  HS02004830              0.01     10.64      0  02:23       0.000     0.000
  HS02004842              0.01    119.87      0  02:23       0.001     0.000
  HS02004848              0.01     71.57      0  02:23       0.000     0.000
  HS02004852              0.01    157.19      0  02:23       0.000     0.000
  HS02004856              0.01    351.27      0  02:23       0.002     0.000
  HS02004862              0.01    101.50      0  02:23       0.000     0.000
  HS02004901              0.23    480.80      0  02:26       0.276     0.000
  WS02006109              0.21    214.99      0  02:25       0.091     0.000
  WS02006228              0.01      0.16      0  02:26       0.000     0.000
  WS02006230              0.42    547.36      0  02:25       0.485     0.000
  WS02006231              0.01      0.09      0  02:18       0.000     0.000
  WS02006232              0.10      0.65      0  02:41       0.000     0.000
  WS02006234              0.45    128.48      0  02:28       0.103     0.000
  WS02006235              0.01     16.82      0  03:00       0.000     0.000
  WS02006242              0.54    137.51      0  02:29       0.216     0.000
  WS02006243              0.01     83.89      0  02:06       0.000     0.000
  WS02006248              0.71    339.97      0  02:18       0.753     0.000
  WS02006249              0.89   1274.87      0  02:23       2.349     0.000
  WS02006252              0.15    309.75      0  02:23       0.065     0.000
  WS02006256              0.40    294.33      0  02:25       0.196     0.000
  YS02001580              0.01     98.53      0  02:20       0.000     0.000
  YS02001586              0.20    134.54      0  02:26       0.053     0.000
  YS02001590              0.01      6.05      0  02:20       0.000     0.000
  YS02001600              0.01      1.89      0  02:20       0.000     0.000
  YS02001601              0.30    717.34      0  02:25       0.458     0.000
  YS02001602              0.20     62.01      0  02:32       0.039     0.000
  YS02001605              0.01      0.03      0  02:26       0.000     0.000
  YS02001610              0.17    273.42      0  02:26       0.110     0.000
  YS02001625              0.14    605.78      0  02:26       0.155     0.000
  YS02001629              0.01     23.68      0  02:26       0.000     0.000
  YS02001644              0.01     20.49      0  02:25       0.000     0.000
  YS02001779              0.01    206.00      0  02:24       0.001     0.000
  YS02001890              0.03     60.79      0  02:23       0.004     0.000
  YS02001907              0.11    987.70      0  02:25       0.187     0.000
  YS02001918              0.01    183.85      0  02:24       0.002     0.000
  YS02001920              0.01     36.37      0  02:24       0.000     0.000
  YS02001923              0.01     86.38      0  02:24       0.000     0.000
  YS02001926              0.01    306.29      0  02:24       0.002     0.000
  YSB1171                 0.09    357.07      0  02:25       0.077     0.000
  
  
  **********************
  Storage Volume Summary
  **********************
  
  --------------------------------------------------------------------------------------------------
                         Average     Avg  Evap Exfil       Maximum     Max    Time of Max    Maximum
                          Volume    Pcnt  Pcnt  Pcnt        Volume    Pcnt     Occurrence    Outflow
  Storage Unit           1000 m3    Full  Loss  Loss       1000 m3    Full    days hr:min        LPS
  --------------------------------------------------------------------------------------------------
  CC-storage               1.615      25     0     0         2.945      46       0  02:41    1783.53
  JK-storage               0.066      23     0     0         0.194      67       0  02:20    2300.00
  XR-storage               0.927      64     0     0         1.111      77       0  08:00     380.00
  
  
  ***********************
  Outfall Loading Summary
  ***********************
  
  -----------------------------------------------------------
                         Flow       Avg       Max       Total
                         Freq      Flow      Flow      Volume
  Outfall Node           Pcnt       LPS       LPS    10^6 ltr
  -----------------------------------------------------------
  CC-1                  29.23    683.00    683.00       3.054
  CC-2                  27.03    683.00    683.00       2.953
  JK-1                   5.91   1000.00   1000.00       1.112
  JK-2                   6.09   1000.00   1000.00       1.125
  WSC                   99.95    532.98   1478.43      12.222
  -----------------------------------------------------------
  System                33.64   3898.98   1478.43      20.465
  
  
  ********************
  Link Flow Summary
  ********************
  
  -----------------------------------------------------------------------------
                                 Maximum  Time of Max   Maximum    Max/    Max/
                                  |Flow|   Occurrence   |Veloc|    Full    Full
  Link                 Type          LPS  days hr:min     m/sec    Flow   Depth
  -----------------------------------------------------------------------------
  1                    CONDUIT   1478.43     0  02:29      3.68    0.51    0.51
  HS02004478WS02006287 CONDUIT   2251.11     0  02:25      2.60    0.63    1.00
  HS02004479HS02004480 CONDUIT    453.30     0  02:23      0.65    0.44    1.00
  HS02004480HS02004478 CONDUIT   2120.62     0  02:21      3.03    8.93    1.00
  HS02004770HS02004777 CONDUIT    752.49     0  02:20      1.07    1.38    1.00
  HS02004777HS02004785 CONDUIT    770.40     0  02:20      1.15    0.95    1.00
  HS02004785HS02004788 CONDUIT    646.50     0  02:20      1.36    4.87    1.00
  HS02004788HS02004792 CONDUIT    809.79     0  02:20      1.42    0.54    1.00
  HS02004792HS02004799 CONDUIT   1629.67     0  02:21      2.33    1.00    1.00
  HS02004799HS02004480 CONDUIT   1775.12     0  02:21      2.54    2.24    1.00
  HS02004802HS02004478 CONDUIT    747.25     0  02:25      1.07    0.66    1.00
  HS02004807HS02004802 CONDUIT    747.39     0  02:25      1.07    1.43    1.00
  HS02004817HS02004807 CONDUIT    474.76     0  02:26      0.68    0.28    1.00
  HS02004817HS02004824 CONDUIT    473.54     0  02:26      0.68    0.21    1.00
  HS02004824HS02004830 CONDUIT    661.10     0  02:20      0.97    0.87    1.00
  HS02004830HS02004837 CONDUIT    662.53     0  02:21      1.03    0.66    1.00
  HS02004837HS02004842 CONDUIT    840.87     0  02:21      1.20    0.50    1.00
  HS02004842HS02004848 CONDUIT    839.59     0  02:21      1.33    0.49    1.00
  HS02004848HS02004852 CONDUIT   1081.84     0  02:23      1.63    1.22    1.00
  HS02004852HS02004856 CONDUIT   1089.28     0  02:23      1.56    1.25    1.00
  HS02004856HS02004862 CONDUIT   1094.16     0  02:23      1.71    1.09    1.00
  HS02004862HS02004870 CONDUIT   1218.44     0  02:22      1.95    1.32    1.00
  HS02004870HS02004876 CONDUIT   1184.93     0  02:23      1.82    0.79    1.00
  HS02004876HS02004881 CONDUIT   1338.37     0  02:23      2.37   14.24    1.00
  HS02004881HS02006253 CONDUIT   1417.08     0  02:23      2.60    0.28    1.00
  HS02004901HS02004770 CONDUIT    264.26     0  02:31      0.38    0.99    1.00
  WS02001211WS02001212 CONDUIT    214.67     0  02:51      0.54    0.16    0.68
  WS02001212WS02001213 CONDUIT    221.20     0  02:52      1.04    0.34    0.55
  WS02001213WS02003059 CONDUIT    228.02     0  02:51      0.47    0.38    0.89
  WS02003059WS02003060 CONDUIT    237.26     0  02:51      0.66    0.15    0.80
  WS02003060WS02003069 CONDUIT   1475.96     0  02:27      2.07    0.58    0.60
  WS02003066WSF200     CONDUIT   1278.20     0  02:26      3.25    0.22    0.38
  WS02003067WS02003066 CONDUIT   1277.97     0  02:25      1.98    0.41    0.56
  WS02003069WS02003072 CONDUIT   1476.08     0  02:28      1.88    0.71    0.65
  WS02003072WS02003073 CONDUIT   1476.10     0  02:28      2.04    3.19    0.61
  WS02004138WS02004139 CONDUIT    190.00     0  00:32      2.17    0.04    0.41
  WS02004139WS02001211 CONDUIT    198.84     0  02:51      0.54    0.25    0.60
  WS02004401WS02004402 CONDUIT   1278.78     0  02:25      1.63    1.54    1.00
  WS02004402WS02004403 CONDUIT   1279.54     0  02:25      1.63    1.84    1.00
  WS02004403WS02004404 CONDUIT   1279.29     0  02:25      1.63    0.92    1.00
  WS02004404WS02004405 CONDUIT   1280.35     0  02:25      1.63   12.54    1.00
  WS02004405WS02004406 CONDUIT   1279.93     0  02:25      1.63    2.52    1.00
  WS02004406WS02004407 CONDUIT   1279.18     0  02:25      1.74    0.57    0.94
  WS02004407WS02004409 CONDUIT   1277.28     0  02:25      1.74    0.45    0.94
  WS02004409WS02004410 CONDUIT   1277.74     0  02:25      1.63    1.65    1.00
  WS02004410WS02004411 CONDUIT   1277.54     0  02:25      1.63    1.74    1.00
  WS02004411WS02004412 CONDUIT   1277.59     0  02:25      1.63    1.81    1.00
  WS02004412WS02004413 CONDUIT   1277.56     0  02:25      1.63    0.86    1.00
  WS02004413WS02003067 CONDUIT   1277.56     0  02:25      1.98    0.55    0.76
  WS02006109WS02006110 CONDUIT   1117.33     0  02:33      2.22    2.15    1.00
  WS02006110WS02006113 CONDUIT   1117.33     0  02:33      2.22    1.02    1.00
  WS02006111WS02006112 CONDUIT   1117.82     0  02:33      2.22    0.53    1.00
  WS02006112WS02006115 CONDUIT   1278.51     0  02:25      1.63    0.75    1.00
  WS02006113WS02006111 CONDUIT   1117.56     0  02:33      2.63    1.34    1.00
  WS02006115WS02006116 CONDUIT   1279.24     0  02:25      1.63    1.64    1.00
  WS02006116WS02004401 CONDUIT   1278.83     0  02:25      1.63    1.76    1.00
  WS02006228WS02006109 CONDUIT   1261.51     0  02:25      2.51    5.51    1.00
  WS02006229WS02006228 CONDUIT   1261.67     0  02:25      2.51    4.18    1.00
  WS02006230WS02006229 CONDUIT    989.86     0  02:25      2.57   22.03    1.00
  WS02006231WS02006230 CONDUIT    453.30     0  02:21      1.21    6.88    1.00
  WS02006232WS02006231 CONDUIT    453.44     0  02:21      1.18    0.95    1.00
  WS02006234WS02006232 CONDUIT    453.08     0  02:21      1.41    0.92    1.00
  WS02006235WS02006234 CONDUIT    416.06     0  03:15      1.21    4.39    1.00
  WS02006238WS02006235 CONDUIT    415.97     0  02:29      1.45    0.93    1.00
  WS02006239WS02006238 CONDUIT    415.24     0  02:29      1.11    1.33    1.00
  WS02006240WS02006239 CONDUIT    414.96     0  02:26      1.26    1.31    1.00
  WS02006242WS02006240 CONDUIT    415.00     0  02:29      1.14    1.65    1.00
  WS02006243WS02006242 CONDUIT    357.62     0  00:05      1.34    0.76    1.00
  WS02006245WS02006243 CONDUIT    371.62     0  00:05      1.39    1.10    1.00
  WS02006247WS02006245 CONDUIT    383.09     0  00:05      1.37    3.04    1.00
  WS02006248WS02006247 CONDUIT    385.59     0  00:04      1.38    0.84    1.00
  WS02006249WS02006248 CONDUIT    390.96     0  00:04      1.38    2.14    1.00
  WS02006251WS02006249 CONDUIT   1336.07     0  02:23      3.47    3.85    1.00
  WS02006252WS02006251 CONDUIT    410.23     0  02:44     21.36    1.51    1.00
  WS02006253WS02006251 CONDUIT   1443.91     0  02:23      3.75    4.33    1.00
  WS02006256WS02006235 CONDUIT    288.93     0  00:00      4.23    3.06    1.00
  WS02006280WS02006229 CONDUIT   2252.49     0  02:25      4.25    0.48    1.00
  WS02006284WS02006280 CONDUIT   2250.78     0  02:25      3.01    0.94    1.00
  WS02006287WS02006284 CONDUIT   2250.63     0  02:25      2.87    1.04    1.00
  WSF200WS02003060     CONDUIT   1278.49     0  02:26      2.29    0.28    0.50
  YS02001580YS02001583 CONDUIT    116.76     0  02:20      0.68    0.45    1.00
  YS02001583YS02001586 CONDUIT    165.80     0  02:20      0.69    0.25    1.00
  YS02001586YS02001590 CONDUIT    317.83     0  02:30      1.27    0.56    1.00
  YS02001590YS02001593 CONDUIT    317.95     0  02:30      1.12    2.00    1.00
  YS02001593YS02001596 CONDUIT    317.95     0  02:31      1.74    0.50    1.00
  YS02001596YS02001600 CONDUIT    317.96     0  02:24      1.23    0.62    1.00
  YS02001600YS02001601 CONDUIT    317.81     0  02:30      1.12    0.55    1.00
  YS02001601YS02001602 CONDUIT    517.25     0  02:20      1.83    1.87    1.00
  YS02001602YS02001605 CONDUIT    516.72     0  02:20      1.83   10.93    1.00
  YS02001605YS02001607 CONDUIT    516.05     0  02:20      1.83    2.83    1.00
  YS02001607YS02001610 CONDUIT    518.37     0  02:19      0.66    0.49    1.00
  YS02001610YS02001613 CONDUIT    519.22     0  02:19      0.66    0.60    1.00
  YS02001613YS02001616 CONDUIT    515.06     0  02:20      0.66    0.44    1.00
  YS02001616YS02001619 CONDUIT    510.26     0  02:38      0.70    0.89    1.00
  YS02001619YS02001622 CONDUIT    938.62     0  02:22      1.20    1.38    1.00
  YS02001622YS02001625 CONDUIT    938.24     0  02:22      1.19    0.50    1.00
  YS02001625YS02001629 CONDUIT    938.60     0  02:22      1.20    0.45    1.00
  YS02001629YS02163301 CONDUIT    937.30     0  02:22      1.19    1.15    1.00
  YS02001633YS02163601 CONDUIT   1423.77     0  02:23      1.81    1.49    1.00
  YS02001641YS02001644 CONDUIT   1418.27     0  02:23      1.81    4.58    1.00
  YS02001644YS02001647 CONDUIT   1853.09     0  02:23      2.36    1.09    1.00
  YS02001647YS02001649 CONDUIT   1863.81     0  02:23      2.40    0.98    1.00
  YS02001649YS02001757 CONDUIT   2161.40     0  02:23      2.76    1.31    1.00
  YS02001652YS02001649 CONDUIT    602.92     0  02:27      0.77    0.30    1.00
  YS02001655YS02001652 CONDUIT    604.11     0  02:27      1.29    0.29    1.00
  YS02001658YS02001655 CONDUIT    604.74     0  02:27      1.94    0.26    1.00
  YS02001661YS02001658 CONDUIT    715.62     0  02:25      2.38    0.28    0.81
  YS02001664YS02001661 CONDUIT    543.97     0  02:25      2.37    0.17    0.51
  YS02001745YS02001748 CONDUIT    489.88     0  02:26      2.23    0.19    0.60
  YS02001748YS02001751 CONDUIT    473.91     0  02:27      1.74    0.24    0.96
  YS02001751YS02001754 CONDUIT    379.65     0  02:26      1.44    0.18    1.00
  YS02001754YS02001757 CONDUIT    380.99     0  02:26      0.49    0.15    1.00
  YS02001757CaochengTiaoxuchi CONDUIT   3283.36     0  02:26      4.56    1.42    1.00
  YS02001759YS02001757 CONDUIT   1205.50     0  02:24      1.53    0.86    1.00
  YS02001762YS02001759 CONDUIT    727.70     0  02:24      0.93    0.84    1.00
  YS02001765YS02001762 CONDUIT    719.02     0  02:24      0.92    0.67    1.00
  YS02001767YS02001765 CONDUIT    709.05     0  02:24      0.90    0.89    1.00
  YS02001770YS02001767 CONDUIT    699.48     0  02:24      0.89    2.77    1.00
  YS02001774YS02001770 CONDUIT    308.07     0  02:24      0.39    0.20    1.00
  YS02001779YS02001774 CONDUIT    313.70     0  02:24      0.41    0.16    1.00
  YS02001783YS02001784 CONDUIT   1152.68     0  02:25      2.29    1.59    1.00
  YS02001784YS02001785 CONDUIT   1153.52     0  02:25      2.29    2.68    1.00
  YS02001786YS02001788 CONDUIT   1153.73     0  02:25      2.46    2.22    0.89
  YS02001788YS02001790 CONDUIT   1162.97     0  02:26      2.70    0.86    0.83
  YS02001790YS02001791 CONDUIT   1273.69     0  02:27      3.40    1.39    0.70
  YS02001791YS02001793 CONDUIT   1228.86     0  02:26      6.75    0.53    0.41
  YS02001793JiankangQianchi CONDUIT   1264.56     0  02:26      2.54    0.10    0.61
  YS02001882YS02001884 CONDUIT     56.97     0  02:22      0.08    0.07    1.00
  YS02001884YS02001887 CONDUIT     76.80     0  02:22      0.10    0.10    1.00
  YS02001887YS02001890 CONDUIT    515.88     0  02:25      0.66    0.88    1.00
  YS02001890YS02001895 CONDUIT    492.83     0  02:25      0.63    0.23    1.00
  YS02001895YS02001898 CONDUIT    493.69     0  02:25      0.63    0.86    1.00
  YS02001898YS02001901 CONDUIT    494.57     0  02:25      0.63    0.32    1.00
  YS02001901YS02001904 CONDUIT    494.06     0  02:25      0.63    0.77    1.00
  YS02001904YS02001907 CONDUIT    494.94     0  02:25      0.63    0.17    1.00
  YS02001907YS02006553 CONDUIT    796.35     0  02:32      0.88    0.94    1.00
  YS02001910YS02001907 CONDUIT    998.77     0  02:25      1.27    0.56    1.00
  YS02001915YS02001910 CONDUIT    998.16     0  02:25      1.27    0.50    1.00
  YS02001918YS02001915 CONDUIT    461.74     0  02:25      0.59    0.25    1.00
  YS02001920YS02001918 CONDUIT    460.32     0  02:25      0.64    0.45    1.00
  YS02001923YS02001920 CONDUIT    456.56     0  02:25      0.72    0.20    1.00
  YS02001926YS02001923 CONDUIT    416.05     0  02:25      0.98    0.59    1.00
  YS02001929YS02001926 CONDUIT    412.94     0  02:25      1.17    0.20    1.00
  YS02006553YS02006556 CONDUIT    797.46     0  02:32      1.02    0.68    1.00
  YS02006556YS02006558 CONDUIT    799.73     0  02:32      1.02    0.63    1.00
  YS02006558YS02006561 CONDUIT   1161.48     0  02:23      4.11    2.57    1.00
  YS02006561YS02001783 CONDUIT   1152.18     0  02:25      2.29    0.60    1.00
  YS02163301YS02001633 CONDUIT    937.29     0  02:22      1.19    0.88    1.00
  YS02163601YS02164001 CONDUIT   1422.47     0  02:23      1.81    1.26    1.00
  YS02164001YS02001641 CONDUIT   1419.57     0  02:23      1.81    1.94    1.00
  YSB1154YSB6556       CONDUIT    283.24     0  02:25      0.74    0.51    1.00
  YSB1171HS02004479    CONDUIT    451.41     0  02:23      0.90    0.30    1.00
  YSB1174YSB1171       CONDUIT    243.63     0  02:25      0.63    0.37    1.00
  YSB6556YSB1171       CONDUIT    284.23     0  02:25      0.74    0.29    1.00
  CC-R1                PUMP       683.00     0  00:00              1.00
  CC-R2                PUMP       683.00     0  00:00              1.00
  CC-S1                PUMP       200.00     0  00:00              1.00
  CC-S2                PUMP       200.00     0  00:00              1.00
  JK-R1                PUMP      1000.00     0  00:00              1.00
  JK-R2                PUMP      1000.00     0  00:00              1.00
  JK-S                 PUMP       300.00     0  00:00              1.00
  XR-1                 PUMP        95.00     0  00:00              1.00
  XR-2                 PUMP        95.00     0  00:00              1.00
  XR-3                 PUMP        95.00     0  00:00              1.00
  XR-4                 PUMP        95.00     0  00:00              1.00
  
  
  ***************************
  Flow Classification Summary
  ***************************
  
  -------------------------------------------------------------------------------------
                      Adjusted    ---------- Fraction of Time in Flow Class ---------- 
                       /Actual         Up    Down  Sub   Sup   Up    Down  Norm  Inlet 
  Conduit               Length    Dry  Dry   Dry   Crit  Crit  Crit  Crit  Ltd   Ctrl  
  -------------------------------------------------------------------------------------
  1                       1.00   0.00  0.00  0.00  0.00  1.00  0.00  0.00  0.32  0.00
  HS02004478WS02006287    1.00   0.19  0.00  0.00  0.49  0.32  0.00  0.00  0.62  0.00
  HS02004479HS02004480    1.00   0.09  0.00  0.00  0.91  0.00  0.00  0.00  0.12  0.00
  HS02004480HS02004478    1.00   0.17  0.00  0.00  0.40  0.00  0.00  0.43  0.00  0.00
  HS02004770HS02004777    1.00   0.00  0.17  0.00  0.83  0.00  0.00  0.00  0.03  0.00
  HS02004777HS02004785    1.00   0.00  0.00  0.00  1.00  0.00  0.00  0.00  0.14  0.00
  HS02004785HS02004788    1.00   0.00  0.00  0.00  1.00  0.00  0.00  0.00  0.00  0.00
  HS02004788HS02004792    1.00   0.00  0.00  0.00  0.99  0.01  0.00  0.00  0.93  0.00
  HS02004792HS02004799    1.00   0.00  0.00  0.00  0.98  0.02  0.00  0.00  0.90  0.00
  HS02004799HS02004480    1.00   0.00  0.09  0.00  0.82  0.00  0.09  0.00  0.00  0.00
  HS02004802HS02004478    1.00   0.17  0.00  0.00  0.82  0.00  0.00  0.00  0.03  0.00
  HS02004807HS02004802    1.00   0.17  0.00  0.00  0.82  0.00  0.00  0.01  0.00  0.00
  HS02004817HS02004807    1.00   0.00  0.17  0.00  0.83  0.00  0.00  0.00  0.01  0.00
  HS02004817HS02004824    1.00   0.00  0.00  0.00  1.00  0.00  0.00  0.00  0.87  0.00
  HS02004824HS02004830    1.00   0.00  0.00  0.00  1.00  0.00  0.00  0.00  0.01  0.00
  HS02004830HS02004837    1.00   0.00  0.00  0.00  1.00  0.00  0.00  0.00  0.92  0.00
  HS02004837HS02004842    1.00   0.00  0.00  0.00  1.00  0.00  0.00  0.00  0.11  0.00
  HS02004842HS02004848    1.00   0.00  0.17  0.00  0.83  0.00  0.00  0.00  0.60  0.00
  HS02004848HS02004852    1.00   0.17  0.00  0.00  0.83  0.00  0.00  0.00  0.69  0.00
  HS02004852HS02004856    1.00   0.17  0.01  0.00  0.82  0.00  0.00  0.00  0.73  0.00
  HS02004856HS02004862    1.00   0.00  0.19  0.00  0.81  0.00  0.00  0.00  0.76  0.00
  HS02004862HS02004870    1.00   0.00  0.00  0.00  1.00  0.00  0.00  0.00  0.05  0.00
  HS02004870HS02004876    1.00   0.00  0.00  0.00  0.96  0.03  0.00  0.00  0.90  0.00
  HS02004876HS02004881    1.00   0.04  0.00  0.00  0.74  0.22  0.00  0.00  0.00  0.00
  HS02004881HS02006253    1.00   0.00  0.12  0.00  0.33  0.04  0.00  0.50  0.14  0.00
  HS02004901HS02004770    1.00   0.17  0.00  0.00  0.83  0.00  0.00  0.00  0.00  0.00
  WS02001211WS02001212    1.00   0.00  0.05  0.00  0.95  0.00  0.00  0.00  0.00  0.00
  WS02001212WS02001213    1.00   0.05  0.01  0.00  0.41  0.00  0.53  0.00  0.00  0.00
  WS02001213WS02003059    1.00   0.00  0.00  0.00  0.99  0.00  0.00  0.00  0.00  0.00
  WS02003059WS02003060    1.00   0.00  0.00  0.00  1.00  0.00  0.00  0.00  0.03  0.00
  WS02003060WS02003069    1.00   0.00  0.00  0.00  0.97  0.03  0.00  0.00  0.53  0.00
  WS02003066WSF200        1.00   0.14  0.00  0.00  0.00  0.86  0.00  0.00  0.76  0.00
  WS02003067WS02003066    1.00   0.13  0.00  0.00  0.86  0.00  0.00  0.00  0.00  0.00
  WS02003069WS02003072    1.00   0.00  0.00  0.00  1.00  0.00  0.00  0.00  0.71  0.00
  WS02003072WS02003073    1.00   0.00  0.00  0.00  0.00  0.00  0.00  1.00  0.00  0.00
  WS02004138WS02004139    1.00   0.00  0.01  0.00  0.94  0.02  0.00  0.02  0.98  0.00
  WS02004139WS02001211    1.00   0.00  0.00  0.00  0.99  0.00  0.00  0.00  0.00  0.00
  WS02004401WS02004402    1.00   0.05  0.00  0.00  0.95  0.00  0.00  0.00  0.00  0.00
  WS02004402WS02004403    1.00   0.05  0.00  0.00  0.94  0.00  0.00  0.00  0.00  0.00
  WS02004403WS02004404    1.00   0.00  0.06  0.00  0.94  0.00  0.00  0.00  0.00  0.00
  WS02004404WS02004405    1.00   0.00  0.00  0.00  1.00  0.00  0.00  0.00  0.02  0.00
  WS02004405WS02004406    1.00   0.00  0.00  0.00  1.00  0.00  0.00  0.00  0.00  0.00
  WS02004406WS02004407    1.00   0.00  0.10  0.00  0.90  0.00  0.00  0.00  0.00  0.00
  WS02004407WS02004409    1.00   0.10  0.00  0.00  0.87  0.03  0.00  0.00  0.88  0.00
  WS02004409WS02004410    1.00   0.10  0.00  0.00  0.90  0.00  0.00  0.00  0.00  0.00
  WS02004410WS02004411    1.00   0.10  0.00  0.00  0.89  0.00  0.00  0.00  0.00  0.00
  WS02004411WS02004412    1.00   0.11  0.00  0.00  0.89  0.00  0.00  0.00  0.00  0.00
  WS02004412WS02004413    1.00   0.11  0.00  0.00  0.88  0.00  0.00  0.00  0.00  0.00
  WS02004413WS02003067    1.00   0.12  0.01  0.00  0.00  0.00  0.87  0.00  0.00  0.00
  WS02006109WS02006110    1.00   0.00  0.01  0.00  0.97  0.00  0.02  0.00  0.00  0.00
  WS02006110WS02006113    1.00   0.01  0.02  0.00  0.97  0.00  0.00  0.00  0.00  0.00
  WS02006111WS02006112    1.00   0.04  0.00  0.00  0.95  0.01  0.00  0.01  0.83  0.00
  WS02006112WS02006115    1.00   0.04  0.01  0.00  0.94  0.00  0.01  0.00  0.00  0.00
  WS02006113WS02006111    1.00   0.03  0.00  0.00  0.19  0.77  0.00  0.00  0.08  0.00
  WS02006115WS02006116    1.00   0.05  0.00  0.00  0.93  0.00  0.00  0.02  0.00  0.00
  WS02006116WS02004401    1.00   0.05  0.00  0.00  0.95  0.00  0.00  0.00  0.00  0.00
  WS02006228WS02006109    1.00   0.00  0.00  0.00  1.00  0.00  0.00  0.00  0.00  0.00
  WS02006229WS02006228    1.00   0.00  0.00  0.00  0.99  0.00  0.00  0.01  0.00  0.00
  WS02006230WS02006229    1.00   0.00  0.00  0.00  0.98  0.00  0.00  0.02  0.04  0.00
  WS02006231WS02006230    1.00   0.00  0.00  0.00  0.42  0.00  0.58  0.00  0.00  0.00
  WS02006232WS02006231    1.00   0.00  0.00  0.00  0.99  0.00  0.00  0.00  0.00  0.00
  WS02006234WS02006232    1.00   0.00  0.00  0.00  1.00  0.00  0.00  0.00  0.08  0.00
  WS02006235WS02006234    1.00   0.00  0.00  0.00  0.90  0.00  0.10  0.00  0.00  0.00
  WS02006238WS02006235    1.00   0.00  0.00  0.00  1.00  0.00  0.00  0.00  0.00  0.00
  WS02006239WS02006238    1.00   0.00  0.00  0.00  1.00  0.00  0.00  0.00  0.19  0.00
  WS02006240WS02006239    1.00   0.00  0.00  0.00  0.80  0.00  0.00  0.20  0.03  0.00
  WS02006242WS02006240    1.00   0.00  0.00  0.00  1.00  0.00  0.00  0.00  0.00  0.00
  WS02006243WS02006242    1.00   0.00  0.00  0.00  1.00  0.00  0.00  0.00  0.70  0.00
  WS02006245WS02006243    1.00   0.00  0.00  0.00  0.91  0.00  0.00  0.08  0.00  0.00
  WS02006247WS02006245    1.00   0.00  0.00  0.00  0.98  0.00  0.00  0.02  0.00  0.00
  WS02006248WS02006247    1.00   0.00  0.00  0.00  1.00  0.00  0.00  0.00  0.62  0.00
[...]
  WS02006256WS02006235    1.00   0.00  0.00  0.00  0.99  0.01  0.00  0.00  0.00  0.00
  WS02006280WS02006229    1.00   0.17  0.00  0.00  0.13  0.04  0.00  0.65  0.00  0.00
  WS02006284WS02006280    1.00   0.17  0.00  0.00  0.09  0.02  0.00  0.72  0.00  0.00
  WS02006287WS02006284    1.00   0.16  0.03  0.00  0.36  0.45  0.00  0.00  0.68  0.00
  WSF200WS02003060        1.00   0.00  0.14  0.00  0.50  0.36  0.00  0.00  0.71  0.00
  YS02001580YS02001583    1.00   0.35  0.38  0.00  0.27  0.00  0.00  0.00  0.66  0.00
  YS02001583YS02001586    1.00   0.36  0.29  0.00  0.34  0.00  0.00  0.00  0.66  0.00
  YS02001586YS02001590    1.00   0.17  0.00  0.00  0.56  0.03  0.00  0.24  0.36  0.00
  YS02001590YS02001593    1.00   0.17  0.00  0.00  0.09  0.00  0.73  0.00  0.00  0.00
  YS02001593YS02001596    1.00   0.17  0.00  0.00  0.11  0.01  0.00  0.71  0.01  0.00
  YS02001596YS02001600    1.00   0.17  0.00  0.00  0.21  0.04  0.00  0.58  0.05  0.00
  YS02001600YS02001601    1.00   0.17  0.00  0.00  0.82  0.00  0.00  0.00  0.65  0.00
  YS02001601YS02001602    1.00   0.17  0.01  0.00  0.83  0.00  0.00  0.00  0.00  0.00
  YS02001602YS02001605    1.00   0.17  0.00  0.00  0.82  0.00  0.00  0.00  0.00  0.00
  YS02001605YS02001607    1.00   0.18  0.00  0.00  0.82  0.00  0.00  0.00  0.00  0.00
  YS02001607YS02001610    1.00   0.17  0.00  0.00  0.82  0.00  0.00  0.00  0.02  0.00
  YS02001610YS02001613    1.00   0.17  0.00  0.00  0.83  0.00  0.00  0.00  0.01  0.00
  YS02001613YS02001616    1.00   0.17  0.00  0.00  0.83  0.00  0.00  0.00  0.01  0.00
  YS02001616YS02001619    1.00   0.17  0.00  0.00  0.83  0.00  0.00  0.00  0.00  0.00
  YS02001619YS02001622    1.00   0.17  0.00  0.00  0.83  0.00  0.00  0.00  0.35  0.00
  YS02001622YS02001625    1.00   0.17  0.00  0.00  0.83  0.00  0.00  0.00  0.07  0.00
  YS02001625YS02001629    1.00   0.17  0.03  0.00  0.14  0.00  0.66  0.00  0.00  0.00
  YS02001629YS02163301    1.00   0.19  0.00  0.00  0.81  0.00  0.00  0.00  0.00  0.00
  YS02001633YS02163601    1.00   0.00  0.00  0.00  1.00  0.00  0.00  0.00  0.16  0.00
  YS02001641YS02001644    1.00   0.00  0.00  0.00  1.00  0.00  0.00  0.00  0.00  0.00
  YS02001644YS02001647    1.00   0.00  0.20  0.00  0.80  0.00  0.00  0.00  0.00  0.00
  YS02001647YS02001649    1.00   0.00  0.20  0.00  0.33  0.47  0.00  0.00  0.59  0.00
  YS02001649YS02001757    1.00   0.00  0.00  0.00  0.50  0.50  0.00  0.00  0.60  0.00
  YS02001652YS02001649    1.00   0.00  0.00  0.00  0.97  0.03  0.00  0.00  0.81  0.00
  YS02001655YS02001652    1.00   0.00  0.00  0.00  0.17  0.03  0.00  0.80  0.07  0.00
  YS02001658YS02001655    1.00   0.00  0.18  0.00  0.42  0.40  0.00  0.00  0.77  0.00
  YS02001661YS02001658    1.00   0.18  0.00  0.00  0.27  0.55  0.00  0.00  0.75  0.00
  YS02001664YS02001661    1.00   0.17  0.00  0.00  0.68  0.15  0.00  0.00  0.86  0.00
  YS02001745YS02001748    1.00   0.00  0.00  0.00  0.02  0.01  0.00  0.97  0.01  0.00
  YS02001748YS02001751    1.00   0.00  0.00  0.00  0.64  0.36  0.00  0.00  0.82  0.00
  YS02001751YS02001754    1.00   0.00  0.00  0.00  0.09  0.01  0.00  0.90  0.03  0.00
  YS02001754YS02001757    1.00   0.00  0.00  0.00  1.00  0.00  0.00  0.00  0.91  0.00
  YS02001757CaochengTiaoxuchi    1.00   0.00  0.00  0.00  0.92  0.08  0.00  0.00  0.92  0.00
  YS02001759YS02001757    1.00   0.00  0.00  0.00  1.00  0.00  0.00  0.00  0.65  0.00
  YS02001762YS02001759    1.00   0.00  0.00  0.00  1.00  0.00  0.00  0.00  0.07  0.00
  YS02001765YS02001762    1.00   0.00  0.00  0.00  1.00  0.00  0.00  0.00  0.78  0.00
  YS02001767YS02001765    1.00   0.00  0.00  0.00  1.00  0.00  0.00  0.00  0.00  0.00
  YS02001770YS02001767    1.00   0.00  0.00  0.00  1.00  0.00  0.00  0.00  0.00  0.00
  YS02001774YS02001770    1.00   0.00  0.17  0.00  0.69  0.00  0.14  0.00  0.04  0.00
  YS02001779YS02001774    1.00   0.00  0.00  0.00  1.00  0.00  0.00  0.00  0.84  0.00
  YS02001783YS02001784    1.00   0.00  0.21  0.00  0.79  0.00  0.00  0.00  0.58  0.00
  YS02001784YS02001785    1.00   0.00  0.00  0.00  1.00  0.00  0.00  0.00  0.19  0.00
  YS02001786YS02001788    1.00   0.00  0.00  0.00  0.64  0.36  0.00  0.00  0.00  0.00
  YS02001788YS02001790    1.00   0.00  0.00  0.00  0.23  0.77  0.00  0.00  0.86  0.00
  YS02001790YS02001791    1.00   0.00  0.00  0.00  0.02  0.98  0.00  0.00  0.14  0.00
  YS02001791YS02001793    1.00   0.00  0.00  0.00  0.00  1.00  0.00  0.00  0.00  0.00
  YS02001793JiankangQianchi    1.00   0.00  0.00  0.00  0.98  0.02  0.00  0.00  0.99  0.00
  YS02001882YS02001884    1.00   0.18  0.01  0.00  0.81  0.00  0.00  0.00  0.00  0.00
  YS02001884YS02001887    1.00   0.14  0.03  0.00  0.84  0.00  0.00  0.00  0.00  0.00
  YS02001887YS02001890    1.00   0.00  0.00  0.00  0.93  0.00  0.07  0.00  0.00  0.00
  YS02001890YS02001895    1.00   0.00  0.19  0.00  0.81  0.00  0.00  0.00  0.00  0.00
  YS02001895YS02001898    1.00   0.19  0.00  0.00  0.79  0.00  0.02  0.00  0.00  0.00
  YS02001898YS02001901    1.00   0.19  0.00  0.00  0.80  0.00  0.00  0.00  0.02  0.00
  YS02001901YS02001904    1.00   0.19  0.00  0.00  0.81  0.00  0.00  0.00  0.00  0.00
  YS02001904YS02001907    1.00   0.00  0.19  0.00  0.81  0.00  0.00  0.00  0.00  0.00
  YS02001907YS02006553    1.00   0.00  0.05  0.00  0.95  0.00  0.00  0.00  0.00  0.00
  YS02001910YS02001907    1.00   0.00  0.00  0.00  0.93  0.01  0.00  0.06  0.12  0.00
  YS02001915YS02001910    1.00   0.00  0.00  0.00  0.95  0.05  0.00  0.00  0.18  0.00
  YS02001918YS02001915    1.00   0.00  0.00  0.00  0.94  0.05  0.00  0.00  0.80  0.00
  YS02001920YS02001918    1.00   0.00  0.00  0.00  1.00  0.00  0.00  0.00  0.00  0.00
  YS02001923YS02001920    1.00   0.00  0.00  0.00  1.00  0.00  0.00  0.00  0.96  0.00
  YS02001926YS02001923    1.00   0.00  0.14  0.00  0.04  0.00  0.82  0.00  0.00  0.00
  YS02001929YS02001926    1.00   0.00  0.17  0.00  0.83  0.00  0.00  0.00  0.85  0.00
  YS02006553YS02006556    1.00   0.01  0.00  0.00  0.99  0.00  0.00  0.00  0.03  0.00
  YS02006556YS02006558    1.00   0.00  0.00  0.00  1.00  0.00  0.00  0.00  0.00  0.00
  YS02006558YS02006561    1.00   0.21  0.00  0.00  0.03  0.76  0.00  0.00  0.18  0.00
  YS02006561YS02001783    1.00   0.21  0.00  0.00  0.07  0.73  0.00  0.00  0.71  0.00
  YS02163301YS02001633    1.00   0.00  0.19  0.00  0.81  0.00  0.00  0.00  0.00  0.00
  YS02163601YS02164001    1.00   0.00  0.15  0.00  0.85  0.00  0.00  0.00  0.00  0.00
  YS02164001YS02001641    1.00   0.01  0.14  0.00  0.85  0.00  0.00  0.00  0.06  0.00
  YSB1154YSB6556          1.00   0.17  0.00  0.00  0.83  0.00  0.00  0.00  0.02  0.00
  YSB1171HS02004479       1.00   0.10  0.00  0.00  0.87  0.00  0.00  0.03  0.11  0.00
  YSB1174YSB1171          1.00   0.13  0.03  0.00  0.85  0.00  0.00  0.00  0.00  0.00
  YSB6556YSB1171          1.00   0.10  0.07  0.00  0.83  0.00  0.00  0.00  0.00  0.00
  
  
  *************************
  Conduit Surcharge Summary
  *************************
  
  ----------------------------------------------------------------------------
                                                           Hours        Hours 
                         --------- Hours Full --------   Above Full   Capacity
  Conduit                Both Ends  Upstream  Dnstream   Normal Flow   Limited
  ----------------------------------------------------------------------------
  HS02004478WS02006287        0.24      0.24      0.39      0.01         0.01
  HS02004479HS02004480        0.39      0.39      0.41      0.01         0.01
  HS02004480HS02004478        0.34      0.39      0.34      1.30         0.34
  HS02004770HS02004777        0.31      0.31      0.32      0.08         0.05
  HS02004777HS02004785        0.28      0.28      0.32      0.01         0.01
  HS02004785HS02004788        0.26      0.28      0.26      0.98         0.25
  HS02004788HS02004792        0.26      0.26      0.36      0.01         0.01
  HS02004792HS02004799        0.36      0.36      0.46      0.01         0.01
  HS02004799HS02004480        0.39      0.39      0.46      0.52         0.01
  HS02004802HS02004478        0.35      0.35      0.40      0.01         0.01
  HS02004807HS02004802        0.38      0.38      0.39      0.08         0.08
  HS02004817HS02004807        0.38      0.38      0.80      0.01         0.01
  HS02004817HS02004824        0.27      0.27      0.80      0.01         0.01
  HS02004824HS02004830        0.24      0.24      0.27      0.01         0.01
  HS02004830HS02004837        0.21      0.21      0.24      0.01         0.01
  HS02004837HS02004842        0.21      0.21      0.32      0.01         0.01
  HS02004842HS02004848        0.17      0.17      0.32      0.01         0.01
  HS02004848HS02004852        0.17      0.17      0.20      0.03         0.01
  HS02004852HS02004856        0.19      0.20      0.21      0.02         0.01
  HS02004856HS02004862        0.17      0.17      0.22      0.01         0.01
  HS02004862HS02004870        0.22      0.22      0.23      0.03         0.02
  HS02004870HS02004876        0.23      0.23      0.29      0.01         0.01
  HS02004876HS02004881        0.27      0.29      0.27      1.00         0.27
  HS02004881HS02006253        0.27      0.27      0.88      0.01         0.01
  HS02004901HS02004770        0.31      0.31      0.32      0.01         0.01
  WS02003072WS02003073        0.01      0.01      0.01      1.77         0.01
  WS02004401WS02004402        1.06      1.06      1.09      0.93         0.92
  WS02004402WS02004403        1.09      1.09      1.10      1.05         1.04
  WS02004403WS02004404        1.10      1.10      1.23      0.01         0.01
  WS02004404WS02004405        1.21      1.23      1.21      2.80         1.21
  WS02004405WS02004406        1.15      1.21      1.15      1.35         1.15
  WS02004406WS02004407        0.01      0.01      1.15      0.01         0.01
  WS02004407WS02004409        0.01      0.01      0.63      0.01         0.01
  WS02004409WS02004410        0.61      0.63      0.61      0.98         0.61
  WS02004410WS02004411        0.57      0.61      0.57      1.01         0.57
  WS02004411WS02004412        0.48      0.57      0.48      1.04         0.48
  WS02004412WS02004413        0.48      0.48      0.87      0.01         0.01
  WS02004413WS02003067        0.01      0.01      0.87      0.01         0.01
  WS02006109WS02006110        1.28      1.28      1.56      1.29         0.01
  WS02006110WS02006113        0.81      0.81      1.54      0.20         0.01
  WS02006111WS02006112        0.79      0.79      1.70      0.01         0.01
  WS02006112WS02006115        0.98      0.98      1.40      0.01         0.01
  WS02006113WS02006111        0.80      0.81      0.80      0.91         0.80
  WS02006115WS02006116        0.99      0.99      0.99      0.97         0.96
  WS02006116WS02004401        1.05      1.05      1.06      1.02         1.02
  WS02006228WS02006109        1.52      1.56      1.52      1.81         1.52
  WS02006229WS02006228        1.52      1.53      1.52      1.65         1.52
  WS02006230WS02006229        1.58      1.59      1.58      2.93         0.80
  WS02006231WS02006230        1.18      1.19      1.23      2.22         0.68
  WS02006232WS02006231        1.20      1.20      1.37      0.01         0.09
  WS02006234WS02006232        1.23      1.23      1.37      0.01         0.01
  WS02006235WS02006234        1.21      1.22      1.24      1.93         0.65
  WS02006238WS02006235        1.27      1.27      1.31      0.01         0.19
  WS02006239WS02006238        1.26      1.27      1.28      0.53         0.06
  WS02006240WS02006239        1.17      1.18      1.19      0.52         0.04
  WS02006242WS02006240        1.16      1.16      1.27      0.89         0.55
  WS02006243WS02006242        1.15      1.15      1.22      0.01         0.01
  WS02006245WS02006243        1.13      1.13      1.15      0.04         0.02
  WS02006247WS02006245        1.12      1.14      1.12      1.69         0.41
  WS02006248WS02006247        1.09      1.09      1.13      0.01         0.01
  WS02006249WS02006248        1.06      1.06      1.08      0.85         0.01
  WS02006251WS02006249        1.05      1.05      1.09      0.89         0.85
  WS02006252WS02006251        1.01      1.01      1.07      0.56         0.01
  WS02006253WS02006251        1.04      1.04      1.07      0.48         0.02
  WS02006256WS02006235        2.23      2.27      6.72      0.34         0.01
  WS02006280WS02006229        0.48      0.48      0.60      0.01         0.01
  WS02006284WS02006280        0.41      0.41      0.47      0.01         0.01
  WS02006287WS02006284        0.34      0.34      0.42      0.11         0.11
  YS02001580YS02001583        0.27      0.27      0.30      0.01         0.01
  YS02001583YS02001586        0.28      0.28      0.36      0.01         0.01
  YS02001586YS02001590        0.37      0.37      0.42      0.01         0.01
  YS02001590YS02001593        0.42      0.42      0.43      0.44         0.01
  YS02001593YS02001596        0.43      0.43      0.51      0.01         0.01
  YS02001596YS02001600        0.54      0.54      0.61      0.01         0.01
  YS02001600YS02001601        0.67      0.67      0.92      0.01         0.01
  YS02001601YS02001602        0.81      0.81      0.96      0.63         0.01
  YS02001602YS02001605        0.77      0.77      0.81      1.82         0.01
  YS02001605YS02001607        0.73      0.77      0.73      0.88         0.73
  YS02001607YS02001610        0.37      0.37      0.39      0.01         0.01
  YS02001610YS02001613        0.36      0.36      0.39      0.01         0.01
  YS02001613YS02001616        0.33      0.33      0.36      0.01         0.01
  YS02001616YS02001619        0.32      0.32      0.33      0.01         0.01
  YS02001619YS02001622        0.31      0.32      0.31      0.45         0.30
  YS02001622YS02001625        0.31      0.31      0.46      0.01         0.01
  YS02001625YS02001629        0.26      0.26      0.46      0.01         0.01
  YS02001629YS02163301        0.44      0.44      0.45      0.23         0.22
  YS02001633YS02163601        0.46      0.46      0.49      0.33         0.33
  YS02001641YS02001644        0.33      0.38      0.33      1.01         0.33
  YS02001644YS02001647        0.17      0.17      0.33      0.05         0.01
  YS02001647YS02001649        0.17      0.17      0.20      0.01         0.01
  YS02001649YS02001757        0.19      0.20      0.19      0.26         0.18
  YS02001652YS02001649        0.13      0.13      0.20      0.01         0.01
  YS02001655YS02001652        0.06      0.06      0.12      0.01         0.01
  YS02001658YS02001655        0.01      0.01      0.06      0.01         0.01
  YS02001661YS02001658        0.01      0.01      0.01      0.01         0.01
  YS02001748YS02001751        0.01      0.01      0.01      0.01         0.01
  YS02001751YS02001754        0.01      0.01      0.06      0.01         0.01
  YS02001754YS02001757        0.08      0.08      0.19      0.01         0.01
  YS02001757CaochengTiaoxuchi        0.01      0.19      0.24      0.26         0.01
  YS02001759YS02001757        0.16      0.16      0.19      0.01         0.01
  YS02001762YS02001759        0.15      0.15      0.16      0.01         0.01
  YS02001765YS02001762        0.13      0.13      0.15      0.01         0.01
  YS02001767YS02001765        0.12      0.12      0.13      0.01         0.01
  YS02001770YS02001767        0.12      0.13      0.12      0.33         0.11
  YS02001774YS02001770        0.11      0.11      0.14      0.01         0.01
  YS02001779YS02001774        0.08      0.08      0.14      0.01         0.01
  YS02001783YS02001784        0.24      0.26      0.24      0.37         0.24
  YS02001784YS02001785        0.16      0.24      0.16      0.54         0.16
  YS02001786YS02001788        0.01      0.16      0.01      0.45         0.01
  YS02001790YS02001791        0.01      0.01      0.01      0.23         0.01
  YS02001793JiankangQianchi        0.01      0.01      6.84      0.01         0.01
  YS02001882YS02001884        0.22      0.22      0.23      0.01         0.01
  YS02001884YS02001887        0.25      0.25      0.26      0.01         0.01
  YS02001887YS02001890        0.27      0.27      0.28      0.01         0.01
  YS02001890YS02001895        0.21      0.21      0.29      0.01         0.01
  YS02001895YS02001898        0.21      0.21      0.21      0.01         0.01
  YS02001898YS02001901        0.21      0.21      0.25      0.01         0.01
  YS02001901YS02001904        0.24      0.24      0.25      0.01         0.01
  YS02001904YS02001907        0.24      0.24      0.44      0.01         0.01
  YS02001907YS02006553        0.54      0.54      0.59      0.01         0.01
  YS02001910YS02001907        0.29      0.29      0.43      0.01         0.01
  YS02001915YS02001910        0.22      0.22      0.29      0.01         0.01
  YS02001918YS02001915        0.16      0.16      0.22      0.01         0.01
  YS02001920YS02001918        0.16      0.16      0.17      0.01         0.01
  YS02001923YS02001920        0.11      0.11      0.17      0.01         0.01
  YS02001926YS02001923        0.01      0.01      0.01      0.01         0.01
  YS02001929YS02001926        0.01      0.01      0.01      0.01         0.01
  YS02006553YS02006556        0.35      0.35      0.44      0.01         0.01
  YS02006556YS02006558        0.40      0.40      0.45      0.01         0.01
  YS02006558YS02006561        0.18      0.35      0.18      0.50         0.18
  YS02006561YS02001783        0.12      0.12      0.26      0.01         0.01
  YS02163301YS02001633        0.45      0.45      0.48      0.01         0.01
  YS02163601YS02164001        0.39      0.39      0.49      0.19         0.01
  YS02164001YS02001641        0.38      0.39      0.38      0.53         0.37
  YSB1154YSB6556              0.44      0.44      0.54      0.01         0.01
  YSB1171HS02004479           0.35      0.35      0.54      0.01         0.01
  YSB1174YSB1171              0.49      0.49      0.73      0.01         0.01
  YSB6556YSB1171              0.44      0.44      0.86      0.01         0.01
  
  
  ***************
  Pumping Summary
  ***************
  
  ---------------------------------------------------------------------------------------------------------
                                                  Min       Avg       Max     Total     Power    % Time Off
                        Percent   Number of      Flow      Flow      Flow    Volume     Usage    Pump Curve
  Pump                 Utilized   Start-Ups       LPS       LPS       LPS  10^6 ltr     Kw-hr    Low   High
  ---------------------------------------------------------------------------------------------------------
  CC-R1                   15.58          24      0.00    683.00    683.00     3.066     52.23    0.0   80.6
  CC-R2                   15.06          23      0.00    683.00    683.00     2.963     50.51    0.0   79.9
  CC-S1                   16.16          32      0.00    200.00    200.00     0.931      6.96    0.0    0.0
  CC-S2                   14.44          36      0.00    200.00    200.00     0.832      6.14    0.0    0.0
  JK-R1                    3.88          21      0.00   1000.00   1000.00     1.118     10.15    0.0    0.0
  JK-R2                    3.93          18      0.00   1000.00   1000.00     1.133      9.90    0.0    0.0
  JK-S                     4.99          26      0.00    300.00    300.00     0.431      8.09    0.0    0.0
  XR-1                    97.91           2      0.00     95.00     95.00     2.679      9.62    0.0    0.0
  XR-2                    93.94           2      0.00     95.00     95.00     2.570      8.78    0.0    0.0
  XR-3                     0.00           1      0.00     95.00     95.00     0.000      0.00    0.0    0.0
  XR-4                     0.00           1      0.00     95.00     95.00     0.000      0.00    0.0    0.0
  

  Analysis begun on:  Thu Jun 15 19:59:15 2023
  Analysis ended on:  Thu Jun 15 19:59:26 2023
  Total elapsed time: 00:00:11