
  OWA STORM WATER MANAGEMENT MODEL - VERSION v5.1.14 (OWA 2022-07-31)
  --------------------------------------------------------------

  WARNING 04: minimum elevation drop used for Conduit WS02004404WS02004405
  WARNING 03: negative offset ignored for Link YS02001904YS02001907
  
  *********************************************************
  NOTE: The summary statistics displayed in this report are
  based on results found at every computational time step,  
  not just on results from each reporting time step.
  *********************************************************
  
  ****************
  Analysis Options
  ****************
  Flow Units ............... LPS
  Process Models:
    Rainfall/Runoff ........ YES
    RDII ................... NO
    Snowmelt ............... NO
    Groundwater ............ NO
    Flow Routing ........... YES
    Ponding Allowed ........ NO
    Water Quality .......... NO
  Infiltration Method ...... HORTON
  Flow Routing Method ...... DYNWAVE
  Surcharge Method ......... EXTRAN
  Starting Date ............ 08/28/2015 08:00:00
  Ending Date .............. 08/28/2015 16:00:00
  Antecedent Dry Days ...... 8.0
  Report Time Step ......... 00:01:00
  Wet Time Step ............ 00:01:00
  Dry Time Step ............ 00:01:00
  Routing Time Step ........ 30.00 sec
  Variable Time Step ....... YES
  Maximum Trials ........... 8
  Number of Threads ........ 2
  Head Tolerance ........... 0.001500 m
  
  
  **************************        Volume         Depth
  Runoff Quantity Continuity     hectare-m            mm
  **************************     ---------       -------
  Initial LID Storage ......         0.072         1.184
  Total Precipitation ......         1.568        25.887
  Evaporation Loss .........         0.000         0.000
  Infiltration Loss ........         0.175         2.893
  Surface Runoff ...........         1.080        17.834
  Final Storage ............         0.385         6.360
  Continuity Error (%) .....        -0.059
  
  
  **************************        Volume        Volume
  Flow Routing Continuity        hectare-m      10^6 ltr
  **************************     ---------     ---------
  Dry Weather Inflow .......         0.630         6.296
  Wet Weather Inflow .......         1.080        10.804
  Groundwater Inflow .......         0.000         0.000
  RDII Inflow ..............         0.000         0.000
  External Inflow ..........         0.105         1.045
  External Outflow .........         1.609        16.093
  Flooding Loss ............         0.195         1.951
  Evaporation Loss .........         0.000         0.000
  Exfiltration Loss ........         0.000         0.000
  Initial Stored Volume ....         0.303         3.031
  Final Stored Volume ......         0.321         3.211
  Continuity Error (%) .....        -0.374
  
  
  *************************
  Highest Continuity Errors
  *************************
  Node YS02001884 (5.98%)
  Node WS02006256 (-5.73%)
  Node YS02001583 (-5.19%)
  Node HS02004842 (4.00%)
  Node YS02001774 (3.56%)
  
  
  ***************************
  Time-Step Critical Elements
  ***************************
  Link WS02006280WS02006229 (47.54%)
  Link WS02006252WS02006251 (30.52%)
  Link WS02006238WS02006235 (7.14%)
  Link WS02003066WSF200 (2.70%)
  Link WS02004404WS02004405 (2.66%)
  
  
  ********************************
  Highest Flow Instability Indexes
  ********************************
  Link WS02006113WS02006111 (23)
  Link WS02006256WS02006235 (19)
  Link WS02006229WS02006228 (13)
  Link WS02006252WS02006251 (12)
  Link WS02006238WS02006235 (11)
  
  
  *************************
  Routing Time Step Summary
  *************************
  Minimum Time Step           :     0.02 sec
  Average Time Step           :     2.36 sec
  Maximum Time Step           :     6.46 sec
  Percent in Steady State     :    -0.00
  Average Iterations per Step :     2.93
  Percent Not Converging      :     8.62
  
  
  ***************************
  Subcatchment Runoff Summary
  ***************************
  
  ------------------------------------------------------------------------------------------------------------------------------
                            Total      Total      Total      Total     Imperv       Perv      Total       Total     Peak  Runoff
                           Precip      Runon       Evap      Infil     Runoff     Runoff     Runoff      Runoff   Runoff   Coeff
  Subcatchment                 mm         mm         mm         mm         mm         mm         mm    10^6 ltr      LPS
  ------------------------------------------------------------------------------------------------------------------------------
  sub0                      25.89       0.00       0.00       0.86      22.82       0.95      23.77        0.02    15.96   0.918
  sub1                      25.89       0.00       0.00       1.31      19.53       1.24      20.77        0.14    92.34   0.802
  sub2                      25.89       0.00       0.00       5.84      14.27       3.03      17.30        0.16    89.98   0.668
  sub3                      25.89       0.00       0.00       6.12      14.11       2.67      16.78        0.38   189.59   0.648
  sub4                      25.89       0.00       0.00       1.44      19.17       1.08      20.25        0.42   210.42   0.782
  sub5                      25.89       0.00       0.00       0.74      18.90       0.76      19.66        0.22   152.26   0.760
  sub7                      25.89       0.00       0.00       0.88      17.28       0.93      18.21        0.06    47.77   0.704
  sub8                      25.89       0.00       0.00       0.86      16.79       0.90      17.69        0.11    85.04   0.683
  sub9                      25.89       0.00       0.00       0.83      16.28       0.87      17.15        0.08    61.92   0.662
  sub10                     25.89       0.00       0.00       0.83      18.31       0.85      19.16        0.21   148.61   0.740
  sub11                     25.89       0.00       0.00       0.76      17.03       0.81      17.83        0.21   157.70   0.689
  sub12                     25.89       0.00       0.00       1.33      17.31       1.40      18.72        0.16   134.98   0.723
  sub14                     25.89       0.00       0.00       0.83      16.12       0.86      16.98        0.16   120.75   0.656
  sub15                     25.89       0.00       0.00       3.80      14.49       2.76      17.25        0.30   196.35   0.667
  sub16                     25.89       0.00       0.00       4.03      14.14       3.32      17.46        0.18   136.28   0.675
  sub17                     25.89       0.00       0.00       4.32      15.61       3.43      19.04        0.16   117.63   0.736
  sub22                     25.89       0.00       0.00       6.67      13.53       4.11      17.64        1.11   703.63   0.681
  sub23                     25.89       0.00       0.00       5.06      13.93       3.59      17.52        0.84   565.25   0.677
  sub60                     25.89       0.00       0.00       1.19      16.65       1.21      17.86        0.23   180.82   0.690
  sub61                     25.89       0.00       0.00       1.83      16.64       1.77      18.41        0.34   259.78   0.711
  sub62                     25.89       0.00       0.00       0.81      17.73       0.82      18.55        0.51   354.23   0.717
  sub63                     25.89       0.00       0.00       3.38      14.25       2.77      17.02        0.39   279.77   0.657
  sub64                     25.89       0.00       0.00       1.62      16.21       1.41      17.62        0.42   278.35   0.681
  sub65                     25.89       0.00       0.00       1.49      17.49       1.28      18.77        0.52   323.44   0.725
  sub66                     25.89       0.00       0.00       3.87      13.75       2.09      15.83        0.74   391.99   0.612
  sub67                     25.89       0.00       0.00       0.80      18.19       0.87      19.06        0.35   287.12   0.736
  sub68                     25.89       0.00       0.00       1.41      16.06       1.36      17.41        0.48   352.50   0.673
  sub69                     25.89       0.00       0.00       1.24      17.36       1.83      19.20        0.71   425.25   0.742
  sub70                     25.89       0.00       0.00       4.10      13.88       3.11      16.99        0.49   228.19   0.656
  sub71                     25.89       0.00       0.00       0.75      16.10       0.73      16.83        0.44   286.86   0.650
  sub72                     25.89       0.00       0.00       0.71      17.37       0.67      18.04        0.25   144.46   0.697
  

  ***********************
  LID Performance Summary
  ***********************

  --------------------------------------------------------------------------------------------------------------------
                                         Total      Evap     Infil   Surface    Drain    Initial     Final  Continuity
                                        Inflow      Loss      Loss   Outflow   Outflow   Storage   Storage       Error
  Subcatchment      LID Control             mm        mm        mm        mm        mm        mm        mm           %
  --------------------------------------------------------------------------------------------------------------------
  sub1              GreenRoof            25.89      0.00      0.00      0.00      0.00      7.05     33.00       -0.20
  sub2              GreenRoof            25.89      0.00      0.00      0.00      0.00      7.05     33.00       -0.20
  sub3              GreenRoof            25.89      0.00      0.00      0.00      0.00      7.05     33.00       -0.20
  sub4              GreenRoof            25.89      0.00      0.00      0.00      0.00      7.05     33.00       -0.20
  sub5              GreenRoof            25.89      0.00      0.00      0.00      0.00      7.05     33.00       -0.20
  sub7              GreenRoof            25.89      0.00      0.00      0.00      0.00      7.05     33.00       -0.20
  sub8              GreenRoof            25.89      0.00      0.00      0.00      0.00      7.05     33.00       -0.20
  sub9              GreenRoof            25.89      0.00      0.00      0.00      0.00      7.05     33.00       -0.20
  sub10             GreenRoof            25.89      0.00      0.00      0.00      0.00      7.05     33.00       -0.20
  sub11             GreenRoof            25.89      0.00      0.00      0.00      0.00      7.05     33.00       -0.20
  sub12             GreenRoof            25.89      0.00      0.00      0.00      0.00      7.05     33.00       -0.20
  sub14             GreenRoof            25.89      0.00      0.00      0.00      0.00      7.05     33.00       -0.20
  sub15             GreenRoof            25.89      0.00      0.00      0.00      0.00      7.05     33.00       -0.20
  sub16             GreenRoof            25.89      0.00      0.00      0.00      0.00      7.05     33.00       -0.20
  sub17             GreenRoof            25.89      0.00      0.00      0.00      0.00      7.05     33.00       -0.20
  sub22             GreenRoof            25.89      0.00      0.00      0.00      0.00      7.05     33.00       -0.20
  sub23             GreenRoof            25.89      0.00      0.00      0.00      0.00      7.05     33.00       -0.20
  sub60             GreenRoof            25.89      0.00      0.00      0.00      0.00      7.05     33.00       -0.20
  sub61             GreenRoof            25.89      0.00      0.00      0.00      0.00      7.05     33.00       -0.20
  sub62             GreenRoof            25.89      0.00      0.00      0.00      0.00      7.05     33.00       -0.20
  sub63             GreenRoof            25.89      0.00      0.00      0.00      0.00      7.05     33.00       -0.20
  sub64             GreenRoof            25.89      0.00      0.00      0.00      0.00      7.05     33.00       -0.20
  sub65             GreenRoof            25.89      0.00      0.00      0.00      0.00      7.05     33.00       -0.20
  sub66             GreenRoof            25.89      0.00      0.00      0.00      0.00      7.05     33.00       -0.20
  sub67             GreenRoof            25.89      0.00      0.00      0.00      0.00      7.05     33.00       -0.20
  sub68             GreenRoof            25.89      0.00      0.00      0.00      0.00      7.05     33.00       -0.20
  sub69             GreenRoof            25.89      0.00      0.00      0.00      0.00      7.05     33.00       -0.20
  sub70             GreenRoof            25.89      0.00      0.00      0.00      0.00      7.05     33.00       -0.20
  sub71             GreenRoof            25.89      0.00      0.00      0.00      0.00      7.05     33.00       -0.20
  sub72             GreenRoof            25.89      0.00      0.00      0.00      0.00      7.05     33.00       -0.20
  
  ******************
  Node Depth Summary
  ******************
  
  ---------------------------------------------------------------------------------
                                 Average  Maximum  Maximum  Time of Max    Reported
                                   Depth    Depth      HGL   Occurrence   Max Depth
  Node                 Type       Meters   Meters   Meters  days hr:min      Meters
  ---------------------------------------------------------------------------------
  HS02004478           JUNCTION     0.12     1.11    10.34     0  02:26        0.92
  HS02004479           JUNCTION     0.18     1.38    10.59     0  02:26        1.11
  HS02004480           JUNCTION     0.15     1.33    10.57     0  02:26        1.08
  HS02004770           JUNCTION     0.17     1.42    11.25     0  02:25        1.42
  HS02004777           JUNCTION     0.19     1.48    11.28     0  02:25        1.36
  HS02004785           JUNCTION     0.10     1.49    11.39     0  02:25        1.13
  HS02004788           JUNCTION     0.06     1.42    11.32     0  02:25        1.05
  HS02004792           JUNCTION     0.10     1.52    11.05     0  02:25        1.27
  HS02004799           JUNCTION     0.20     1.54    10.75     0  02:26        1.27
  HS02004802           JUNCTION     0.20     1.17    10.30     0  02:26        1.02
  HS02004807           JUNCTION     0.17     1.15    10.32     0  02:26        0.98
  HS02004817           JUNCTION     0.45     1.53    10.38     0  02:26        1.33
  HS02004824           JUNCTION     0.06     0.98    10.38     0  02:26        0.77
  HS02004830           JUNCTION     0.07     0.80    10.27     0  02:27        0.70
  HS02004837           JUNCTION     0.05     0.62    10.20     0  02:27        0.60
  HS02004842           JUNCTION     0.33     1.43    10.70     0  02:25        0.87
  HS02004848           JUNCTION     0.03     0.52    10.12     0  02:27        0.51
  HS02004852           JUNCTION     0.04     0.54    10.05     0  02:27        0.54
  HS02004856           JUNCTION     0.09     0.57     9.99     0  02:28        0.55
  HS02004862           JUNCTION     0.05     0.50     9.89     0  02:28        0.48
  HS02004870           JUNCTION     0.04     0.45     9.73     0  02:28        0.45
  HS02004876           JUNCTION     0.07     0.71     9.74     0  02:30        0.69
  HS02004881           JUNCTION     0.03     0.62     9.65     0  02:29        0.62
  HS02004901           JUNCTION     0.17     1.42    11.24     0  02:25        1.42
  WS02001211           JUNCTION     0.59     0.79     5.63     0  02:30        0.79
  WS02001212           JUNCTION     0.34     0.55     5.61     0  02:29        0.55
  WS02001213           JUNCTION     0.53     0.84     5.61     0  02:29        0.84
  WS02003059           JUNCTION     0.59     0.91     5.60     0  02:29        0.91
  WS02003060           JUNCTION     0.32     0.66     5.59     0  02:30        0.65
  WS02003066           JUNCTION     0.18     0.44     5.99     0  02:28        0.43
  WS02003067           JUNCTION     0.46     0.87     6.19     0  02:28        0.87
  WS02003069           JUNCTION     0.36     0.74     5.33     0  02:31        0.74
  WS02003072           JUNCTION     0.42     0.78     5.15     0  02:31        0.78
  WS02003073           JUNCTION     0.25     0.49     4.56     0  02:32        0.49
  WS02004138           JUNCTION     0.13     0.14     7.39     0  00:31        0.14
  WS02004139           JUNCTION     0.53     0.72     5.63     0  02:31        0.72
  WS02004401           JUNCTION     0.61     1.68     7.68     0  02:26        1.66
  WS02004402           JUNCTION     0.63     1.64     7.60     0  02:26        1.62
  WS02004403           JUNCTION     0.64     1.58     7.51     0  02:26        1.55
  WS02004404           JUNCTION     0.71     1.59     7.44     0  02:26        1.57
  WS02004405           JUNCTION     0.70     1.55     7.40     0  02:26        1.53
  WS02004406           JUNCTION     0.70     1.45     7.28     0  02:26        1.44
  WS02004407           JUNCTION     0.18     0.77     7.08     0  02:26        0.77
  WS02004409           JUNCTION     0.39     1.28     7.05     0  02:27        1.27
  WS02004410           JUNCTION     0.41     1.21     6.93     0  02:27        1.20
  WS02004411           JUNCTION     0.42     1.14     6.82     0  02:26        1.13
  WS02004412           JUNCTION     0.44     1.06     6.70     0  02:26        1.05
  WS02004413           JUNCTION     0.57     1.12     6.59     0  02:26        1.11
  WS02006109           JUNCTION     0.75     2.63     9.25     0  02:26        2.55
  WS02006110           JUNCTION     0.72     2.32     8.90     0  02:26        2.25
  WS02006111           JUNCTION     0.27     1.55     8.26     0  02:26        1.52
  WS02006112           JUNCTION     0.79     2.15     8.03     0  02:26        2.12
  WS02006113           JUNCTION     0.34     1.69     8.58     0  02:26        1.64
  WS02006115           JUNCTION     0.52     1.75     7.89     0  02:26        1.73
  WS02006116           JUNCTION     0.59     1.75     7.79     0  02:26        1.73
  WS02006228           JUNCTION     0.77     2.91     9.56     0  02:26        2.81
  WS02006229           JUNCTION     0.76     3.04     9.73     0  02:26        2.94
  WS02006230           JUNCTION     0.72     2.65     9.39     0  02:23        2.65
  WS02006231           JUNCTION     0.48     2.20     9.33     0  02:33        2.20
  WS02006232           JUNCTION     0.58     2.18     9.22     0  02:23        2.18
  WS02006234           JUNCTION     0.46     1.96     9.12     0  02:20        1.96
  WS02006235           JUNCTION     0.48     2.00     9.16     0  02:20        1.92
  WS02006238           JUNCTION     0.51     2.03     9.18     0  02:20        1.93
  WS02006239           JUNCTION     0.45     1.91     9.12     0  02:20        1.80
  WS02006240           JUNCTION     0.41     1.73     9.02     0  02:20        1.67
  WS02006242           JUNCTION     0.45     1.55     8.82     0  02:20        1.55
  WS02006243           JUNCTION     0.35     1.40     8.82     0  02:51        1.40
  WS02006245           JUNCTION     0.34     1.38     8.87     0  02:51        1.38
  WS02006247           JUNCTION     0.36     1.33     8.83     0  02:51        1.33
  WS02006248           JUNCTION     0.31     1.10     8.69     0  02:20        1.10
  WS02006249           JUNCTION     0.34     1.09     8.69     0  02:19        1.09
  WS02006251           JUNCTION     0.34     1.76     9.43     0  02:20        1.72
  WS02006252           JUNCTION     0.22     1.50     9.74     0  00:00        1.18
  WS02006253           JUNCTION     0.38     2.30     9.95     0  02:20        2.00
  WS02006256           JUNCTION     0.80     2.35     9.28     0  00:00        2.35
  WS02006280           JUNCTION     0.16     1.53     9.80     0  02:26        1.42
  WS02006284           JUNCTION     0.42     1.62    10.02     0  02:26        1.49
  WS02006287           JUNCTION     0.17     1.30    10.26     0  02:26        1.13
  WSF200               JUNCTION     0.17     0.49     5.73     0  02:30        0.49
  YS02001580           JUNCTION     0.01     1.05     9.59     0  02:26        0.67
  YS02001583           JUNCTION     0.04     1.14     9.64     0  02:26        0.71
  YS02001586           JUNCTION     0.08     1.13     9.30     0  02:26        1.02
  YS02001590           JUNCTION     0.15     1.38     9.24     0  02:26        1.27
  YS02001593           JUNCTION     0.09     1.30     9.16     0  02:26        1.21
  YS02001596           JUNCTION     0.13     1.66     9.08     0  02:26        1.60
  YS02001600           JUNCTION     0.18     1.87     9.00     0  02:26        1.83
  YS02001601           JUNCTION     0.35     2.06     8.90     0  02:25        2.06
  YS02001602           JUNCTION     0.28     1.87     8.77     0  02:26        1.81
  YS02001605           JUNCTION     0.26     1.74     8.64     0  02:26        1.62
  YS02001607           JUNCTION     0.27     1.55     8.40     0  02:26        1.30
  YS02001610           JUNCTION     0.31     1.60     8.40     0  02:26        1.33
  YS02001613           JUNCTION     0.27     1.55     8.39     0  02:26        1.28
  YS02001616           JUNCTION     0.21     1.46     8.37     0  02:26        1.18
  YS02001619           JUNCTION     0.19     1.41     8.34     0  02:26        1.16
  YS02001622           JUNCTION     0.17     1.37     8.27     0  02:26        1.23
  YS02001625           JUNCTION     0.41     1.65     8.26     0  02:26        1.36
  YS02001629           JUNCTION     0.27     1.73     8.28     0  02:26        1.35
  YS02001633           JUNCTION     0.34     1.66     8.12     0  02:26        1.38
  YS02001641           JUNCTION     0.34     1.31     7.74     0  02:26        1.17
  YS02001644           JUNCTION     0.33     1.17     7.60     0  02:26        1.10
  YS02001647           JUNCTION     0.14     0.75     7.36     0  02:26        0.73
  YS02001649           JUNCTION     0.16     0.85     7.24     0  02:28        0.81
  YS02001652           JUNCTION     0.07     0.64     7.24     0  02:28        0.64
  YS02001655           JUNCTION     0.05     0.39     7.24     0  02:27        0.35
  YS02001658           JUNCTION     0.04     0.23     7.38     0  02:25        0.23
  YS02001661           JUNCTION     0.10     0.29     7.70     0  02:25        0.29
  YS02001664           JUNCTION     0.03     0.20     8.13     0  02:25        0.20
  YS02001745           JUNCTION     0.03     0.18     7.70     0  02:25        0.18
  YS02001748           JUNCTION     0.04     0.20     7.28     0  02:25        0.20
  YS02001751           JUNCTION     0.04     0.20     7.08     0  02:25        0.20
  YS02001754           JUNCTION     0.05     0.49     7.09     0  02:28        0.48
  YS02001757           JUNCTION     0.16     0.81     7.07     0  02:28        0.79
  YS02001759           JUNCTION     0.11     0.71     7.07     0  02:28        0.70
  YS02001762           JUNCTION     0.11     0.68     7.08     0  02:29        0.68
  YS02001765           JUNCTION     0.10     0.64     7.09     0  02:30        0.64
  YS02001767           JUNCTION     0.10     0.61     7.10     0  02:29        0.60
  YS02001770           JUNCTION     0.11     0.62     7.12     0  02:29        0.61
  YS02001774           JUNCTION     0.17     0.70     7.12     0  02:28        0.69
  YS02001779           JUNCTION     0.03     0.45     7.14     0  02:29        0.45
  YS02001783           JUNCTION     0.14     0.77     6.91     0  02:28        0.77
  YS02001784           JUNCTION     0.17     0.76     6.82     0  02:29        0.76
  YS02001786           JUNCTION     0.14     0.62     6.65     0  02:29        0.62
  YS02001788           JUNCTION     0.10     0.49     6.47     0  02:29        0.49
  YS02001790           JUNCTION     0.12     0.58     6.23     0  02:29        0.58
  YS02001791           JUNCTION     0.08     0.35     5.82     0  02:29        0.35
  YS02001793           JUNCTION     0.04     0.18     5.01     0  02:29        0.18
  YS02001882           JUNCTION     0.17     0.81     7.53     0  02:28        0.81
  YS02001884           JUNCTION     0.25     0.91     7.53     0  02:28        0.91
  YS02001887           JUNCTION     0.33     0.99     7.53     0  02:29        0.99
  YS02001890           JUNCTION     0.36     1.02     7.53     0  02:29        1.02
  YS02001895           JUNCTION     0.15     0.78     7.53     0  02:29        0.78
  YS02001898           JUNCTION     0.16     0.79     7.53     0  02:28        0.79
  YS02001901           JUNCTION     0.25     0.91     7.52     0  02:28        0.91
  YS02001904           JUNCTION     0.24     0.90     7.53     0  02:28        0.88
  YS02001907           JUNCTION     0.53     1.24     7.53     0  02:28        1.23
  YS02001910           JUNCTION     0.34     1.03     7.54     0  02:28        1.02
  YS02001915           JUNCTION     0.18     0.82     7.54     0  02:28        0.81
  YS02001918           JUNCTION     0.07     0.48     7.54     0  02:28        0.48
  YS02001920           JUNCTION     0.15     0.55     7.56     0  02:29        0.53
  YS02001923           JUNCTION     0.04     0.29     7.55     0  02:29        0.29
  YS02001926           JUNCTION     0.09     0.31     7.76     0  02:26        0.31
  YS02001929           JUNCTION     0.04     0.18     7.87     0  02:26        0.18
  YS02006553           JUNCTION     0.53     1.24     7.52     0  02:28        1.21
  YS02006556           JUNCTION     0.51     1.19     7.50     0  02:28        1.18
  YS02006558           JUNCTION     0.55     1.22     7.49     0  02:28        1.20
  YS02006561           JUNCTION     0.08     0.40     7.06     0  02:28        0.40
  YS02163301           JUNCTION     0.29     1.69     8.21     0  02:26        1.34
  YS02163601           JUNCTION     0.38     1.54     7.94     0  02:26        1.32
  YS02164001           JUNCTION     0.32     1.38     7.84     0  02:26        1.20
  YSB1154              JUNCTION     0.30     1.60    10.66     0  02:26        1.28
  YSB1171              JUNCTION     0.44     1.72    10.62     0  02:26        1.42
  YSB1174              JUNCTION     0.26     1.52    10.63     0  02:26        1.22
  YSB6556              JUNCTION     0.21     1.48    10.65     0  02:26        1.17
  CC-1                 OUTFALL      0.00     0.00     0.00     0  00:00        0.00
  CC-2                 OUTFALL      0.00     0.00     0.00     0  00:00        0.00
  JK-1                 OUTFALL      0.00     0.00     0.00     0  00:00        0.00
  JK-2                 OUTFALL      0.00     0.00     0.00     0  00:00        0.00
  WSC                  OUTFALL      0.25     0.49     1.16     0  02:32        0.49
  CC-storage           STORAGE      0.55     0.82     6.32     0  02:45        0.82
  JK-storage           STORAGE      1.23     3.42     4.22     0  02:30        3.42
  XR-storage           STORAGE      7.73     9.26     7.26     0  08:00        9.26
  
  
  *******************
  Node Inflow Summary
  *******************
  
  -------------------------------------------------------------------------------------------------
                                  Maximum  Maximum                  Lateral       Total        Flow
                                  Lateral    Total  Time of Max      Inflow      Inflow     Balance
                                   Inflow   Inflow   Occurrence      Volume      Volume       Error
  Node                 Type           LPS      LPS  days hr:min    10^6 ltr    10^6 ltr     Percent
  -------------------------------------------------------------------------------------------------
  HS02004478           JUNCTION      0.00  1986.50     0  02:26           0        3.93      -0.024
  HS02004479           JUNCTION      0.00   289.96     0  02:25           0       0.395       0.210
  HS02004480           JUNCTION      0.00  1964.07     0  02:26           0        3.02       0.079
  HS02004770           JUNCTION    565.25   702.65     0  02:25       0.836        1.02       0.289
  HS02004777           JUNCTION      0.03   716.64     0  02:25    0.000864        1.01       0.508
  HS02004785           JUNCTION      0.15   727.33     0  02:25     0.00432        1.01       0.021
  HS02004788           JUNCTION    198.02   875.91     0  02:26       0.345        1.36       0.010
  HS02004792           JUNCTION    703.91  1562.96     0  02:26        1.12        2.48       0.016
  HS02004799           JUNCTION    120.75  1676.86     0  02:26       0.162        2.64       0.091
  HS02004802           JUNCTION      0.00   331.95     0  02:38           0       0.932       0.416
  HS02004807           JUNCTION    157.70   340.01     0  02:26       0.207       0.965       0.429
  HS02004817           JUNCTION      0.60   334.91     0  02:26      0.0173       0.804       2.080
  HS02004824           JUNCTION    210.47   544.38     0  02:26       0.424       0.868       0.039
  HS02004830           JUNCTION      0.15   565.10     0  02:26     0.00432       0.524       0.268
  HS02004837           JUNCTION    154.96   666.68     0  02:26       0.394       0.616       0.133
  HS02004842           JUNCTION      0.00   575.84     0  02:27           0       0.318       4.165
  HS02004848           JUNCTION    189.59   764.01     0  02:27       0.378        0.58       0.010
  HS02004852           JUNCTION      0.00   751.30     0  02:27           0       0.478       0.011
  HS02004856           JUNCTION     61.92   790.10     0  02:28      0.0825        0.56       0.257
  HS02004862           JUNCTION     90.18   869.64     0  02:28       0.167       0.726       0.022
  HS02004870           JUNCTION     85.04   936.65     0  02:28       0.113       0.839       0.013
  HS02004876           JUNCTION     92.34  1002.92     0  02:28       0.138       0.977       0.050
  HS02004881           JUNCTION     47.77   974.18     0  02:29      0.0614        1.04       0.043
  HS02004901           JUNCTION    136.28   136.28     0  02:25       0.183       0.183       0.918
  WS02001211           JUNCTION      7.35   208.45     0  02:29       0.212        5.44       0.611
  WS02001212           JUNCTION      0.00   217.10     0  02:44           0        5.41       0.290
  WS02001213           JUNCTION      0.00   224.45     0  02:44           0        5.39       0.333
  WS02003059           JUNCTION      0.00   231.88     0  02:44           0        5.38       0.596
  WS02003060           JUNCTION     16.53  1412.14     0  02:30       0.476        10.8       0.139
  WS02003066           JUNCTION      0.00  1206.72     0  02:27           0        4.94       0.033
  WS02003067           JUNCTION      0.00  1204.90     0  02:27           0        4.94       0.090
  WS02003069           JUNCTION      0.32  1407.01     0  02:30     0.00922        10.7       0.146
  WS02003072           JUNCTION      0.00  1405.38     0  02:31           0        10.7       0.196
  WS02003073           JUNCTION      1.82  1406.50     0  02:31      0.0524        10.8       0.204
  WS02004138           JUNCTION      0.00   380.00     0  00:00           0        5.25       0.052
  WS02004139           JUNCTION      0.32   190.32     0  00:31     0.00924        5.26       0.509
  WS02004401           JUNCTION      0.00  1214.67     0  02:26           0        5.05       0.213
  WS02004402           JUNCTION      0.00  1215.12     0  02:26           0        5.04       0.216
  WS02004403           JUNCTION      0.00  1214.40     0  02:26           0        5.03       0.210
  WS02004404           JUNCTION      0.16  1215.33     0  02:26     0.00467        5.03       0.191
  WS02004405           JUNCTION      0.04  1217.84     0  02:26      0.0011        5.02       0.241
  WS02004406           JUNCTION      0.00  1219.54     0  02:26           0           5       0.430
  WS02004407           JUNCTION      0.00  1220.12     0  02:26           0        4.98       0.033
  WS02004409           JUNCTION      0.00  1204.99     0  02:27           0        4.98       0.070
  WS02004410           JUNCTION      0.00  1205.51     0  02:27           0        4.98       0.105
  WS02004411           JUNCTION      0.00  1205.24     0  02:27           0        4.97       0.129
  WS02004412           JUNCTION      0.00  1204.99     0  02:27           0        4.97       0.166
  WS02004413           JUNCTION      0.00  1204.93     0  02:27           0        4.96       0.292
  WS02006109           JUNCTION      1.23  1098.78     0  02:26      0.0354        4.94       0.200
  WS02006110           JUNCTION      0.00  1099.49     0  02:26           0        4.93       0.168
  WS02006111           JUNCTION      0.00  1100.62     0  02:26           0        4.92       0.023
  WS02006112           JUNCTION    117.63  1214.22     0  02:26       0.163        5.08       0.386
  WS02006113           JUNCTION      0.00  1099.75     0  02:26           0        4.92       0.040
  WS02006115           JUNCTION      0.00  1214.51     0  02:26           0        5.07       0.142
  WS02006116           JUNCTION      0.00  1215.01     0  02:26           0        5.06       0.103
  WS02006228           JUNCTION      0.00  1097.70     0  02:30           0        4.91       0.105
  WS02006229           JUNCTION      0.00  1829.07     0  02:26           0        5.49       0.166
  WS02006230           JUNCTION     10.28   748.30     0  02:26       0.296        2.17       0.439
  WS02006231           JUNCTION      0.00   453.19     0  02:27           0        1.78      -0.240
  WS02006232           JUNCTION      0.00   453.35     0  02:26           0        1.78       0.403
  WS02006234           JUNCTION      0.00   452.99     0  02:27           0        1.77      -0.783
  WS02006235           JUNCTION      0.00   447.41     0  03:10           0        1.86       0.724
  WS02006238           JUNCTION      0.00   415.68     0  02:26           0        1.66      -0.193
  WS02006239           JUNCTION      0.00   414.98     0  02:27           0        1.58      -0.158
  WS02006240           JUNCTION      0.00   414.73     0  02:28           0        1.54      -0.024
  WS02006242           JUNCTION      0.00   415.16     0  02:28           0        1.53      -0.100
  WS02006243           JUNCTION      0.00   371.62     0  00:05           0         1.4      -0.149
  WS02006245           JUNCTION      0.00   383.09     0  00:05           0        1.42       1.168
  WS02006247           JUNCTION      0.00   385.59     0  00:04           0        1.41       0.078
  WS02006248           JUNCTION      0.00   390.96     0  00:04           0        1.46      -0.353
  WS02006249           JUNCTION      0.00  1083.60     0  02:30           0         2.2       0.597
  WS02006251           JUNCTION      0.08  1083.65     0  02:29     0.00222        2.26      -0.056
  WS02006252           JUNCTION      0.00   400.00     0  00:00           0        1.12      -1.426
  WS02006253           JUNCTION     15.96   883.88     0  02:30      0.0193        1.12       0.116
  WS02006256           JUNCTION      0.00   300.00     0  00:00           0        0.45      -5.422
  WS02006280           JUNCTION      0.00  1824.51     0  02:26           0        3.92       0.028
  WS02006284           JUNCTION      0.10  1821.67     0  02:26     0.00275        3.92       0.022
  WS02006287           JUNCTION      0.00  1820.83     0  02:26           0        3.92       0.021
  WSF200               JUNCTION      0.00  1205.36     0  02:27           0        4.94       0.016
  YS02001580           JUNCTION      0.00    97.27     0  02:26           0     0.00397      -1.994
  YS02001583           JUNCTION      0.00   153.40     0  02:26           0      0.0149      -4.930
  YS02001586           JUNCTION    228.19   242.04     0  02:27       0.491       0.502       0.281
  YS02001590           JUNCTION      0.00   241.91     0  02:27           0       0.489      -0.035
  YS02001593           JUNCTION      0.00   241.48     0  02:27           0       0.489       0.031
  YS02001596           JUNCTION      0.00   241.59     0  02:27           0       0.489      -0.012
  YS02001600           JUNCTION      0.00   242.14     0  02:27           0       0.489       0.027
  YS02001601           JUNCTION    425.25   655.38     0  02:27       0.711         1.2       0.061
  YS02001602           JUNCTION      0.00   522.22     0  02:25           0        1.17       0.030
  YS02001605           JUNCTION      0.00   522.08     0  02:25           0        1.17       0.029
  YS02001607           JUNCTION      0.00   521.71     0  02:25           0        1.17       0.153
  YS02001610           JUNCTION      0.00   528.54     0  02:25           0        1.17       0.189
  YS02001613           JUNCTION      0.00   534.28     0  02:25           0        1.17       0.135
  YS02001616           JUNCTION      0.00   543.59     0  02:25           0        1.17       0.036
  YS02001619           JUNCTION    391.99   905.04     0  02:25       0.738         1.9       0.005
  YS02001622           JUNCTION      0.00   905.90     0  02:26           0         1.9       0.001
  YS02001625           JUNCTION      0.00   909.53     0  02:26           0         1.9       0.476
  YS02001629           JUNCTION      0.00   912.44     0  02:26           0        1.89       0.033
  YS02001633           JUNCTION    323.64  1215.34     0  02:26       0.522        2.42       0.143
  YS02001641           JUNCTION      0.00  1212.55     0  02:26           0        2.41       0.114
  YS02001644           JUNCTION    278.39  1487.52     0  02:26       0.424        2.83       0.118
  YS02001647           JUNCTION      0.00  1492.70     0  02:26           0        2.82       0.009
  YS02001649           JUNCTION      0.00  1757.50     0  02:28           0        3.22       0.012
  YS02001652           JUNCTION      0.00   323.46     0  02:27           0        0.39      -0.241
  YS02001655           JUNCTION      0.15   280.79     0  02:25     0.00443        0.39       0.179
  YS02001658           JUNCTION      0.00   280.11     0  02:25           0       0.386      -0.007
  YS02001661           JUNCTION      0.00   279.39     0  02:25           0       0.386       0.085
  YS02001664           JUNCTION    279.77   279.77     0  02:25       0.386       0.386      -0.007
  YS02001745           JUNCTION    180.83   180.83     0  02:25       0.235       0.235      -0.001
  YS02001748           JUNCTION      0.04   180.60     0  02:25      0.0013       0.236       0.001
  YS02001751           JUNCTION      0.01   181.35     0  02:25    0.000317       0.236       0.355
  YS02001754           JUNCTION      0.26   185.45     0  02:25     0.00749       0.243      -0.437
  YS02001757           JUNCTION      0.00  2338.55     0  02:28           0        4.33       0.048
  YS02001759           JUNCTION    259.82   510.94     0  02:30       0.339       0.866      -0.004
  YS02001762           JUNCTION      0.00   323.68     0  02:30           0       0.527       0.027
  YS02001765           JUNCTION      0.00   310.81     0  02:29           0       0.527       0.024
  YS02001767           JUNCTION      0.54   306.70     0  02:25      0.0154       0.527       0.044
  YS02001770           JUNCTION    354.38   354.38     0  02:25       0.513       0.536       0.003
  YS02001774           JUNCTION      0.00    50.01     0  02:28           0      0.0324       3.694
  YS02001779           JUNCTION      0.01    28.84     0  02:28    0.000144     0.00767       0.102
  YS02001783           JUNCTION      0.00   847.65     0  02:28           0        1.57       0.017
  YS02001784           JUNCTION      1.06   847.39     0  02:28      0.0305         1.6       0.031
  YS02001786           JUNCTION      0.06   847.27     0  02:29     0.00162        1.61       0.039
  YS02001788           JUNCTION      0.07   847.74     0  02:29     0.00204        1.61       0.019
  YS02001790           JUNCTION      0.15   849.27     0  02:29     0.00446        1.61       0.026
  YS02001791           JUNCTION      0.00   886.52     0  02:29           0        1.61       0.009
  YS02001793           JUNCTION      0.00   853.78     0  02:29           0        1.61       0.011
  YS02001882           JUNCTION      0.00    20.49     0  02:26           0      0.0104       6.344
  YS02001884           JUNCTION      0.00    48.12     0  02:26           0      0.0416       6.362
  YS02001887           JUNCTION    287.57   287.57     0  02:25       0.368       0.396       1.143
  YS02001890           JUNCTION      0.00   255.01     0  02:25           0        0.36       1.438
  YS02001895           JUNCTION      0.00   240.35     0  02:25           0       0.355       0.352
  YS02001898           JUNCTION      0.00   210.41     0  02:27           0       0.354       0.162
  YS02001901           JUNCTION      0.00   202.39     0  02:28           0       0.356       0.889
  YS02001904           JUNCTION      0.00   214.84     0  02:34           0        0.36       0.815
  YS02001907           JUNCTION      0.00   603.68     0  02:31           0        1.12       1.628
  YS02001910           JUNCTION      0.00   401.07     0  02:30           0       0.771       0.927
  YS02001915           JUNCTION    286.88   390.98     0  02:29       0.441       0.772       0.219
  YS02001918           JUNCTION      0.00   164.72     0  02:29           0       0.332       0.096
  YS02001920           JUNCTION      2.87   154.49     0  02:30      0.0827       0.333       0.319
  YS02001923           JUNCTION      0.04   143.63     0  02:26     0.00109        0.25       0.005
  YS02001926           JUNCTION      0.05   144.28     0  02:26      0.0015        0.25       0.086
  YS02001929           JUNCTION    144.46   144.46     0  02:26       0.248       0.248      -0.004
  YS02006553           JUNCTION      0.00   603.69     0  02:31           0        1.11       1.064
  YS02006556           JUNCTION      0.00   603.54     0  02:31           0        1.12       0.742
  YS02006558           JUNCTION    353.38   846.43     0  02:28       0.505         1.6       0.216
  YS02006561           JUNCTION      0.00   846.37     0  02:28           0        1.57       0.005
  YS02163301           JUNCTION      0.00   894.02     0  02:26           0        1.89       0.081
  YS02163601           JUNCTION      0.11  1217.02     0  02:26     0.00317        2.41       0.202
  YS02164001           JUNCTION      0.00  1216.59     0  02:26           0        2.41       0.100
  YSB1154              JUNCTION    152.26   152.26     0  02:25       0.223       0.224       0.650
  YSB1171              JUNCTION      0.00   288.88     0  02:25           0       0.395       1.631
  YSB1174              JUNCTION    134.98   134.98     0  02:25       0.164       0.164       0.776
  YSB6556              JUNCTION      0.00   152.54     0  02:25           0       0.225       0.532
  CC-1                 OUTFALL       0.00   683.00     0  00:00           0        1.75       0.000
  CC-2                 OUTFALL       0.00   683.00     0  00:00           0         2.3       0.000
  JK-1                 OUTFALL       0.00  1000.00     0  00:00           0        0.77       0.000
  JK-2                 OUTFALL       0.00  1000.00     0  00:00           0        0.52       0.000
  WSC                  OUTFALL       0.00  1405.80     0  02:32           0        10.7       0.000
  CC-storage           STORAGE       0.00  2282.73     0  02:28           0        6.55      -0.311
  JK-storage           STORAGE       0.00   853.96     0  02:29           0        1.76      -0.945
  XR-storage           STORAGE     200.00   200.00     0  00:00        5.76        6.36       0.001
  
  
  **********************
  Node Surcharge Summary
  **********************
  
  Surcharging occurs when water rises above the top of the highest conduit.
  ---------------------------------------------------------------------
                                               Max. Height   Min. Depth
                                   Hours       Above Crown    Below Rim
  Node                 Type      Surcharged         Meters       Meters
  ---------------------------------------------------------------------
  HS02004478           JUNCTION        0.02          0.189        0.751
  HS02004479           JUNCTION        0.14          0.585        0.465
  HS02004480           JUNCTION        0.18          0.620        0.480
  HS02004770           JUNCTION        0.11          0.720        0.000
  HS02004777           JUNCTION        0.11          0.780        0.000
  HS02004785           JUNCTION        0.07          0.790        0.000
  HS02004788           JUNCTION        0.06          0.720        0.000
  HS02004792           JUNCTION        0.15          0.825        0.075
  HS02004799           JUNCTION        0.23          0.837        0.223
  HS02004802           JUNCTION        0.18          0.456        0.754
  HS02004807           JUNCTION        0.16          0.452        0.768
  HS02004817           JUNCTION        0.50          0.829        0.911
  HS02004824           JUNCTION        0.05          0.281        1.029
  HS02004830           JUNCTION        0.01          0.097        1.233
  HS02004842           JUNCTION        0.11          0.726        0.794
  HS02004876           JUNCTION        0.01          0.007        1.553
  HS02004901           JUNCTION        0.12          0.720        0.000
  WS02004401           JUNCTION        0.71          0.682        0.978
  WS02004402           JUNCTION        0.73          0.639        1.101
  WS02004403           JUNCTION        0.73          0.579        1.451
  WS02004404           JUNCTION        0.83          0.593        2.187
  WS02004405           JUNCTION        0.81          0.552        2.248
  WS02004406           JUNCTION        0.79          0.450        2.000
  WS02004409           JUNCTION        0.33          0.283        2.077
  WS02004410           JUNCTION        0.32          0.206        2.334
  WS02004411           JUNCTION        0.30          0.141        2.389
  WS02004412           JUNCTION        0.25          0.058        2.252
  WS02004413           JUNCTION        0.51          0.116        2.084
  WS02006109           JUNCTION        1.14          1.813        0.007
  WS02006110           JUNCTION        0.94          1.409        0.441
  WS02006111           JUNCTION        0.46          0.739        1.131
  WS02006112           JUNCTION        1.02          1.145        0.535
  WS02006113           JUNCTION        0.47          0.892        1.038
  WS02006115           JUNCTION        0.64          0.742        1.508
  WS02006116           JUNCTION        0.65          0.695        1.595
  WS02006228           JUNCTION        1.13          2.078        0.122
  WS02006229           JUNCTION        0.32          0.858        0.212
  WS02006230           JUNCTION        0.78          1.570        0.000
  WS02006231           JUNCTION        0.79          1.492        0.038
  WS02006232           JUNCTION        0.91          1.480        0.000
  WS02006234           JUNCTION        0.79          1.240        0.000
  WS02006235           JUNCTION        0.81          1.290        0.000
  WS02006238           JUNCTION        0.82          1.313        0.117
  WS02006239           JUNCTION        0.76          1.168        0.122
  WS02006240           JUNCTION        0.75          1.019        0.371
  WS02006242           JUNCTION        0.75          0.820        0.000
  WS02006243           JUNCTION        0.71          0.688        0.082
  WS02006245           JUNCTION        0.70          0.675        0.175
  WS02006247           JUNCTION        0.70          0.624        0.136
  WS02006248           JUNCTION        0.68          0.380        0.000
  WS02006249           JUNCTION        0.69          0.390        0.000
  WS02006251           JUNCTION        0.53          0.733        0.447
  WS02006252           JUNCTION        0.77          1.100        0.000
  WS02006253           JUNCTION        0.54          1.262        1.218
  WS02006256           JUNCTION        7.08          2.050        0.000
  WS02006280           JUNCTION        0.25          0.476        0.304
  WS02006284           JUNCTION        0.19          0.344        0.456
  WS02006287           JUNCTION        0.12          0.302        0.588
  YS02001580           JUNCTION        0.01          0.450        0.000
  YS02001583           JUNCTION        0.01          0.500        0.000
  YS02001586           JUNCTION        0.14          0.510        0.000
  YS02001590           JUNCTION        0.20          0.727        0.023
  YS02001593           JUNCTION        0.20          0.679        0.161
  YS02001596           JUNCTION        0.27          0.934        0.136
  YS02001600           JUNCTION        0.36          1.186        0.004
  YS02001601           JUNCTION        0.60          1.440        0.000
  YS02001602           JUNCTION        0.52          1.270        0.000
  YS02001605           JUNCTION        0.48          1.141        0.039
  YS02001607           JUNCTION        0.15          0.553        0.127
  YS02001610           JUNCTION        0.17          0.602        0.078
  YS02001613           JUNCTION        0.14          0.547        0.153
  YS02001616           JUNCTION        0.11          0.456        0.154
  YS02001619           JUNCTION        0.10          0.412        0.198
  YS02001622           JUNCTION        0.09          0.371        0.249
  YS02001625           JUNCTION        0.23          0.654        0.126
  YS02001629           JUNCTION        0.01          0.354        0.116
  YS02001633           JUNCTION        0.24          0.644        0.416
  YS02001641           JUNCTION        0.17          0.307        0.793
  YS02001644           JUNCTION        0.12          0.167        0.753
  YS02001907           JUNCTION        0.22          0.230        0.720
  YS02001910           JUNCTION        0.05          0.032        1.068
  YS02006553           JUNCTION        0.24          0.235        0.955
  YS02006556           JUNCTION        0.15          0.146        1.204
  YS02006558           JUNCTION        0.15          0.123        1.277
  YS02163301           JUNCTION        0.23          0.691        0.339
  YS02163601           JUNCTION        0.26          0.538        0.542
  YS02164001           JUNCTION        0.18          0.383        0.717
  YSB1154              JUNCTION        0.30          0.904        0.496
  YSB1171              JUNCTION        0.30          0.868        0.232
  YSB1174              JUNCTION        0.26          0.825        0.425
  YSB6556              JUNCTION        0.22          0.780        0.320
  
  
  *********************
  Node Flooding Summary
  *********************
  
  Flooding refers to all water that overflows a node, whether it ponds or not.
  --------------------------------------------------------------------------
                                                             Total   Maximum
                                 Maximum   Time of Max       Flood    Ponded
                        Hours       Rate    Occurrence      Volume     Depth
  Node                 Flooded       LPS   days hr:min    10^6 ltr    Meters
  --------------------------------------------------------------------------
  HS02004770              0.01     80.17      0  02:25       0.001     0.000
  HS02004777              0.01     35.35      0  02:25       0.000     0.000
  HS02004785              0.01    139.05      0  02:25       0.000     0.000
  HS02004788              0.01     43.27      0  02:25       0.000     0.000
  HS02004901              0.01     36.49      0  02:26       0.001     0.000
  WS02006230              0.20    295.65      0  02:26       0.108     0.000
  WS02006232              0.05      0.60      0  02:28       0.000     0.000
  WS02006234              0.24    128.40      0  02:26       0.070     0.000
  WS02006235              0.01      9.89      0  02:20       0.000     0.000
  WS02006242              0.30    137.23      0  02:25       0.123     0.000
  WS02006248              0.39    337.44      0  02:38       0.376     0.000
  WS02006249              0.53   1038.54      0  02:30       1.058     0.000
  WS02006252              0.01    245.63      0  00:00       0.000     0.000
  WS02006256              0.41    293.19      0  00:00       0.189     0.000
  YS02001580              0.01     43.22      0  02:26       0.000     0.000
  YS02001583              0.01     50.51      0  02:26       0.000     0.000
  YS02001586              0.01     71.07      0  02:26       0.001     0.000
  YS02001601              0.09    182.49      0  02:27       0.028     0.000
  YS02001602              0.01      4.96      0  02:26       0.000     0.000
  
  
  **********************
  Storage Volume Summary
  **********************
  
  --------------------------------------------------------------------------------------------------
                         Average     Avg  Evap Exfil       Maximum     Max    Time of Max    Maximum
                          Volume    Pcnt  Pcnt  Pcnt        Volume    Pcnt     Occurrence    Outflow
  Storage Unit           1000 m3    Full  Loss  Loss       1000 m3    Full    days hr:min        LPS
  --------------------------------------------------------------------------------------------------
  CC-storage               1.519      24     0     0         2.297      36       0  02:45    1783.53
  JK-storage               0.062      21     0     0         0.172      59       0  02:30    2300.00
  XR-storage               0.928      64     0     0         1.111      77       0  08:00     380.00
  
  
  ***********************
  Outfall Loading Summary
  ***********************
  
  -----------------------------------------------------------
                         Flow       Avg       Max       Total
                         Freq      Flow      Flow      Volume
  Outfall Node           Pcnt       LPS       LPS    10^6 ltr
  -----------------------------------------------------------
  CC-1                  18.86    683.00    683.00       1.754
  CC-2                  23.32    683.00    683.00       2.305
  JK-1                   4.74   1000.00   1000.00       0.770
  JK-2                   4.56   1000.00   1000.00       0.520
  WSC                   99.95    462.25   1405.80      10.743
  -----------------------------------------------------------
  System                30.28   3828.25   1405.80      16.093
  
  
  ********************
  Link Flow Summary
  ********************
  
  -----------------------------------------------------------------------------
                                 Maximum  Time of Max   Maximum    Max/    Max/
                                  |Flow|   Occurrence   |Veloc|    Full    Full
  Link                 Type          LPS  days hr:min     m/sec    Flow   Depth
  -----------------------------------------------------------------------------
  1                    CONDUIT   1405.80     0  02:32      3.64    0.49    0.49
  HS02004478WS02006287 CONDUIT   1820.83     0  02:26      2.55    0.51    1.00
  HS02004479HS02004480 CONDUIT    299.31     0  02:26      0.43    0.29    1.00
  HS02004480HS02004478 CONDUIT   1986.50     0  02:26      2.84    8.37    1.00
  HS02004770HS02004777 CONDUIT    716.61     0  02:25      1.02    1.31    1.00
  HS02004777HS02004785 CONDUIT    727.18     0  02:25      1.08    0.89    1.00
  HS02004785HS02004788 CONDUIT    683.09     0  02:26      1.40    5.15    1.00
  HS02004788HS02004792 CONDUIT    877.43     0  02:26      1.48    0.58    1.00
  HS02004792HS02004799 CONDUIT   1564.17     0  02:26      2.23    0.96    1.00
  HS02004799HS02004480 CONDUIT   1677.86     0  02:26      2.40    2.12    1.00
  HS02004802HS02004478 CONDUIT    351.11     0  02:35      0.72    0.31    1.00
  HS02004807HS02004802 CONDUIT    331.95     0  02:38      0.63    0.63    1.00
  HS02004817HS02004807 CONDUIT    334.31     0  02:26      0.48    0.20    1.00
  HS02004817HS02004824 CONDUIT    334.61     0  02:26      0.55    0.15    1.00
  HS02004824HS02004830 CONDUIT    564.95     0  02:26      0.84    0.74    1.00
  HS02004830HS02004837 CONDUIT    520.47     0  02:26      0.82    0.52    0.94
  HS02004837HS02004842 CONDUIT    575.84     0  02:27      0.88    0.34    0.95
  HS02004842HS02004848 CONDUIT    576.37     0  02:27      0.96    0.34    0.87
  HS02004848HS02004852 CONDUIT    751.30     0  02:27      1.44    0.85    0.75
  HS02004852HS02004856 CONDUIT    739.81     0  02:28      1.35    0.85    0.78
  HS02004856HS02004862 CONDUIT    785.92     0  02:28      1.58    0.78    0.71
  HS02004862HS02004870 CONDUIT    872.25     0  02:28      1.85    0.94    0.67
  HS02004870HS02004876 CONDUIT    926.08     0  02:29      1.83    0.61    0.80
  HS02004876HS02004881 CONDUIT    941.85     0  02:29      2.41   10.02    0.94
  HS02004881HS02006253 CONDUIT    875.47     0  02:30      2.72    0.17    0.94
  HS02004901HS02004770 CONDUIT    138.88     0  02:25      0.20    0.52    1.00
  WS02001211WS02001212 CONDUIT    217.10     0  02:44      0.54    0.17    0.67
  WS02001212WS02001213 CONDUIT    224.45     0  02:44      1.04    0.35    0.54
  WS02001213WS02003059 CONDUIT    231.88     0  02:44      0.47    0.38    0.87
  WS02003059WS02003060 CONDUIT    241.79     0  02:43      0.66    0.16    0.78
  WS02003060WS02003069 CONDUIT   1406.69     0  02:30      2.05    0.55    0.58
  WS02003066WSF200     CONDUIT   1205.36     0  02:27      3.31    0.20    0.36
  WS02003067WS02003066 CONDUIT   1206.72     0  02:27      1.93    0.39    0.54
  WS02003069WS02003072 CONDUIT   1405.38     0  02:31      1.85    0.68    0.64
  WS02003072WS02003073 CONDUIT   1404.68     0  02:31      2.00    3.03    0.60
  WS02004138WS02004139 CONDUIT    190.00     0  00:31      2.17    0.04    0.40
  WS02004139WS02001211 CONDUIT    201.10     0  02:29      0.54    0.25    0.59
  WS02004401WS02004402 CONDUIT   1215.12     0  02:26      1.55    1.46    1.00
  WS02004402WS02004403 CONDUIT   1214.40     0  02:26      1.55    1.74    1.00
  WS02004403WS02004404 CONDUIT   1215.17     0  02:26      1.55    0.88    1.00
  WS02004404WS02004405 CONDUIT   1217.80     0  02:26      1.55   11.93    1.00
  WS02004405WS02004406 CONDUIT   1219.54     0  02:26      1.55    2.41    1.00
  WS02004406WS02004407 CONDUIT   1220.12     0  02:26      1.85    0.55    0.88
  WS02004407WS02004409 CONDUIT   1204.99     0  02:27      1.82    0.43    0.88
  WS02004409WS02004410 CONDUIT   1205.51     0  02:27      1.53    1.56    1.00
  WS02004410WS02004411 CONDUIT   1205.24     0  02:27      1.53    1.65    1.00
  WS02004411WS02004412 CONDUIT   1204.99     0  02:27      1.53    1.71    1.00
  WS02004412WS02004413 CONDUIT   1204.93     0  02:27      1.53    0.81    1.00
  WS02004413WS02003067 CONDUIT   1204.90     0  02:27      1.89    0.52    0.75
  WS02006109WS02006110 CONDUIT   1099.49     0  02:26      2.19    2.11    1.00
  WS02006110WS02006113 CONDUIT   1099.75     0  02:26      2.19    1.00    1.00
  WS02006111WS02006112 CONDUIT   1100.95     0  02:26      2.19    0.52    1.00
  WS02006112WS02006115 CONDUIT   1214.51     0  02:26      1.55    0.72    1.00
  WS02006113WS02006111 CONDUIT   1100.62     0  02:26      2.59    1.32    1.00
  WS02006115WS02006116 CONDUIT   1215.01     0  02:26      1.55    1.56    1.00
  WS02006116WS02004401 CONDUIT   1214.67     0  02:26      1.55    1.67    1.00
  WS02006228WS02006109 CONDUIT   1097.55     0  02:26      2.18    4.80    1.00
  WS02006229WS02006228 CONDUIT   1097.70     0  02:30      2.18    3.64    1.00
  WS02006230WS02006229 CONDUIT    738.02     0  02:26      1.92   16.42    1.00
  WS02006231WS02006230 CONDUIT    453.19     0  02:27      1.21    6.87    1.00
  WS02006232WS02006231 CONDUIT    453.35     0  02:26      1.18    0.95    1.00
  WS02006234WS02006232 CONDUIT    452.99     0  02:27      1.41    0.92    1.00
  WS02006235WS02006234 CONDUIT    420.83     0  03:10      1.21    4.44    1.00
  WS02006238WS02006235 CONDUIT    415.68     0  02:26      1.45    0.93    1.00
  WS02006239WS02006238 CONDUIT    414.98     0  02:27      1.11    1.33    1.00
  WS02006240WS02006239 CONDUIT    414.73     0  02:28      1.26    1.31    1.00
  WS02006242WS02006240 CONDUIT    415.16     0  02:28      1.14    1.65    1.00
  WS02006243WS02006242 CONDUIT    357.62     0  00:05      1.34    0.76    1.00
  WS02006245WS02006243 CONDUIT    371.62     0  00:05      1.39    1.10    1.00
  WS02006247WS02006245 CONDUIT    383.09     0  00:05      1.37    3.04    1.00
  WS02006248WS02006247 CONDUIT    385.59     0  00:04      1.42    0.84    1.00
  WS02006249WS02006248 CONDUIT    390.96     0  00:04      1.39    2.14    1.00
  WS02006251WS02006249 CONDUIT   1083.60     0  02:30      2.82    3.12    1.00
  WS02006252WS02006251 CONDUIT    409.42     0  02:45     27.57    1.50    1.00
  WS02006253WS02006251 CONDUIT    883.52     0  02:30      2.30    2.65    1.00
  WS02006256WS02006235 CONDUIT    288.93     0  00:00      4.23    3.06    1.00
  WS02006280WS02006229 CONDUIT   1829.07     0  02:26      4.57    0.39    1.00
  WS02006284WS02006280 CONDUIT   1824.51     0  02:26      3.01    0.76    1.00
  WS02006287WS02006284 CONDUIT   1821.58     0  02:26      2.75    0.84    1.00
  WSF200WS02003060     CONDUIT   1205.93     0  02:26      2.39    0.27    0.48
  YS02001580YS02001583 CONDUIT     97.27     0  02:26      0.66    0.38    1.00
  YS02001583YS02001586 CONDUIT    143.32     0  02:25      0.66    0.22    1.00
  YS02001586YS02001590 CONDUIT    241.91     0  02:27      1.28    0.42    1.00
  YS02001590YS02001593 CONDUIT    241.48     0  02:27      1.03    1.52    1.00
  YS02001593YS02001596 CONDUIT    241.59     0  02:27      1.67    0.38    1.00
  YS02001596YS02001600 CONDUIT    242.14     0  02:27      1.18    0.47    1.00
  YS02001600YS02001601 CONDUIT    242.65     0  02:27      0.86    0.42    1.00
  YS02001601YS02001602 CONDUIT    522.22     0  02:25      1.85    1.89    1.00
  YS02001602YS02001605 CONDUIT    522.08     0  02:25      1.85   11.05    1.00
  YS02001605YS02001607 CONDUIT    521.71     0  02:25      1.85    2.86    1.00
  YS02001607YS02001610 CONDUIT    528.54     0  02:25      0.67    0.50    1.00
  YS02001610YS02001613 CONDUIT    534.28     0  02:25      0.68    0.62    1.00
  YS02001613YS02001616 CONDUIT    543.59     0  02:25      0.70    0.47    1.00
  YS02001616YS02001619 CONDUIT    516.27     0  02:31      0.71    0.90    1.00
  YS02001619YS02001622 CONDUIT    905.90     0  02:26      1.23    1.34    1.00
  YS02001622YS02001625 CONDUIT    909.53     0  02:26      1.16    0.49    1.00
  YS02001625YS02001629 CONDUIT    912.44     0  02:26      1.17    0.43    1.00
  YS02001629YS02163301 CONDUIT    894.02     0  02:26      1.14    1.10    1.00
  YS02001633YS02163601 CONDUIT   1216.91     0  02:26      1.55    1.28    1.00
  YS02001641YS02001644 CONDUIT   1214.37     0  02:26      1.55    3.93    1.00
  YS02001644YS02001647 CONDUIT   1492.70     0  02:26      2.08    0.88    0.88
  YS02001647YS02001649 CONDUIT   1518.31     0  02:26      2.33    0.80    0.78
  YS02001649YS02001757 CONDUIT   1758.41     0  02:28      2.56    1.07    0.83
  YS02001652YS02001649 CONDUIT    342.92     0  02:28      0.67    0.17    0.74
  YS02001655YS02001652 CONDUIT    323.46     0  02:27      1.36    0.16    0.48
  YS02001658YS02001655 CONDUIT    280.63     0  02:25      1.93    0.12    0.30
  YS02001661YS02001658 CONDUIT    280.11     0  02:25      2.07    0.11    0.23
  YS02001664YS02001661 CONDUIT    279.39     0  02:25      1.85    0.09    0.25
  YS02001745YS02001748 CONDUIT    180.56     0  02:25      1.90    0.07    0.18
  YS02001748YS02001751 CONDUIT    181.34     0  02:25      1.59    0.09    0.20
  YS02001751YS02001754 CONDUIT    185.19     0  02:25      1.50    0.09    0.31
  YS02001754YS02001757 CONDUIT    221.22     0  02:29      0.48    0.09    0.64
  YS02001757CaochengTiaoxuchi CONDUIT   2282.73     0  02:28      3.63    0.99    0.77
  YS02001759YS02001757 CONDUIT    512.16     0  02:30      0.88    0.36    0.76
  YS02001762YS02001759 CONDUIT    351.00     0  02:30      0.63    0.40    0.69
  YS02001765YS02001762 CONDUIT    323.68     0  02:30      0.70    0.30    0.66
  YS02001767YS02001765 CONDUIT    310.81     0  02:29      0.79    0.39    0.62
  YS02001770YS02001767 CONDUIT    306.17     0  02:25      0.80    1.21    0.62
  YS02001774YS02001770 CONDUIT     53.04     0  02:31      0.13    0.03    0.64
  YS02001779YS02001774 CONDUIT     32.66     0  02:29      0.08    0.02    0.57
  YS02001783YS02001784 CONDUIT    846.33     0  02:28      1.71    1.17    0.95
  YS02001784YS02001785 CONDUIT    847.21     0  02:29      1.85    1.97    0.86
  YS02001786YS02001788 CONDUIT    847.67     0  02:29      2.28    1.63    0.69
  YS02001788YS02001790 CONDUIT    849.11     0  02:29      2.38    0.63    0.67
  YS02001790YS02001791 CONDUIT    886.52     0  02:29      2.95    0.96    0.58
  YS02001791YS02001793 CONDUIT    853.78     0  02:29      5.98    0.37    0.33
  YS02001793JiankangQianchi CONDUIT    853.96     0  02:29      1.78    0.07    0.59
  YS02001882YS02001884 CONDUIT     20.49     0  02:26      0.05    0.02    0.83
  YS02001884YS02001887 CONDUIT     48.12     0  02:26      0.07    0.06    0.93
  YS02001887YS02001890 CONDUIT    255.01     0  02:25      0.35    0.44    0.98
  YS02001890YS02001895 CONDUIT    240.35     0  02:25      0.36    0.11    0.89
  YS02001895YS02001898 CONDUIT    210.41     0  02:27      0.39    0.37    0.77
  YS02001898YS02001901 CONDUIT    202.39     0  02:28      0.36    0.13    0.85
  YS02001901YS02001904 CONDUIT    214.84     0  02:34      0.36    0.33    0.90
  YS02001904YS02001907 CONDUIT    230.41     0  02:34      0.32    0.08    0.95
  YS02001907YS02006553 CONDUIT    603.69     0  02:31      0.67    0.71    1.00
  YS02001910YS02001907 CONDUIT    403.03     0  02:30      0.51    0.23    1.00
  YS02001915YS02001910 CONDUIT    401.07     0  02:30      0.54    0.20    0.91
  YS02001918YS02001915 CONDUIT    176.31     0  02:32      0.46    0.10    0.65
  YS02001920YS02001918 CONDUIT    164.72     0  02:29      0.65    0.16    0.51
  YS02001923YS02001920 CONDUIT    151.62     0  02:30      0.74    0.07    0.41
  YS02001926YS02001923 CONDUIT    143.59     0  02:26      0.88    0.21    0.26
  YS02001929YS02001926 CONDUIT    144.23     0  02:26      0.97    0.07    0.24
  YS02006553YS02006556 CONDUIT    603.54     0  02:31      0.77    0.52    1.00
  YS02006556YS02006558 CONDUIT    605.39     0  02:30      0.77    0.48    1.00
  YS02006558YS02006561 CONDUIT    846.37     0  02:28      3.35    1.87    0.84
  YS02006561YS02001783 CONDUIT    847.65     0  02:28      2.14    0.44    0.73
  YS02163301YS02001633 CONDUIT    896.52     0  02:26      1.14    0.84    1.00
  YS02163601YS02164001 CONDUIT   1216.59     0  02:26      1.55    1.08    1.00
  YS02164001YS02001641 CONDUIT   1212.55     0  02:26      1.54    1.66    1.00
  YSB1154YSB6556       CONDUIT    152.54     0  02:25      0.40    0.27    1.00
  YSB1171HS02004479    CONDUIT    289.96     0  02:25      0.58    0.19    1.00
  YSB1174YSB1171       CONDUIT    135.34     0  02:25      0.35    0.21    1.00
  YSB6556YSB1171       CONDUIT    157.13     0  02:26      0.41    0.16    1.00
  CC-R1                PUMP       683.00     0  00:00              1.00
  CC-R2                PUMP       683.00     0  00:00              1.00
  CC-S1                PUMP       200.00     0  00:00              1.00
  CC-S2                PUMP       200.00     0  00:00              1.00
  JK-R1                PUMP      1000.00     0  00:00              1.00
  JK-R2                PUMP      1000.00     0  00:00              1.00
  JK-S                 PUMP       300.00     0  00:00              1.00
  XR-1                 PUMP        95.00     0  00:00              1.00
  XR-2                 PUMP        95.00     0  00:00              1.00
  XR-3                 PUMP        95.00     0  00:00              1.00
  XR-4                 PUMP        95.00     0  00:00              1.00
  
  
  ***************************
  Flow Classification Summary
  ***************************
  
  -------------------------------------------------------------------------------------
                      Adjusted    ---------- Fraction of Time in Flow Class ---------- 
                       /Actual         Up    Down  Sub   Sup   Up    Down  Norm  Inlet 
  Conduit               Length    Dry  Dry   Dry   Crit  Crit  Crit  Crit  Ltd   Ctrl  
  -------------------------------------------------------------------------------------
  1                       1.00   0.00  0.00  0.00  0.00  1.00  0.00  0.00  0.34  0.00
  HS02004478WS02006287    1.00   0.20  0.00  0.00  0.51  0.29  0.00  0.00  0.66  0.00
  HS02004479HS02004480    1.00   0.10  0.00  0.00  0.90  0.00  0.00  0.00  0.13  0.00
  HS02004480HS02004478    1.00   0.18  0.00  0.00  0.43  0.00  0.00  0.39  0.00  0.00
  HS02004770HS02004777    1.00   0.00  0.18  0.00  0.82  0.00  0.00  0.00  0.04  0.00
  HS02004777HS02004785    1.00   0.00  0.00  0.00  1.00  0.00  0.00  0.00  0.16  0.00
  HS02004785HS02004788    1.00   0.00  0.00  0.00  1.00  0.00  0.00  0.00  0.00  0.00
  HS02004788HS02004792    1.00   0.00  0.00  0.00  0.99  0.01  0.00  0.00  0.96  0.00
  HS02004792HS02004799    1.00   0.00  0.00  0.00  0.98  0.02  0.00  0.00  0.94  0.00
  HS02004799HS02004480    1.00   0.00  0.10  0.00  0.80  0.00  0.10  0.00  0.00  0.00
  HS02004802HS02004478    1.00   0.18  0.00  0.00  0.81  0.00  0.00  0.00  0.03  0.00
  HS02004807HS02004802    1.00   0.18  0.00  0.00  0.81  0.00  0.00  0.01  0.00  0.00
  HS02004817HS02004807    1.00   0.00  0.18  0.00  0.82  0.00  0.00  0.00  0.01  0.00
  HS02004817HS02004824    1.00   0.00  0.00  0.00  1.00  0.00  0.00  0.00  0.91  0.00
  HS02004824HS02004830    1.00   0.00  0.00  0.00  1.00  0.00  0.00  0.00  0.01  0.00
  HS02004830HS02004837    1.00   0.00  0.00  0.00  1.00  0.00  0.00  0.00  0.95  0.00
  HS02004837HS02004842    1.00   0.00  0.00  0.00  1.00  0.00  0.00  0.00  0.11  0.00
  HS02004842HS02004848    1.00   0.00  0.18  0.00  0.82  0.00  0.00  0.00  0.64  0.00
  HS02004848HS02004852    1.00   0.18  0.00  0.00  0.82  0.00  0.00  0.00  0.69  0.00
  HS02004852HS02004856    1.00   0.18  0.01  0.00  0.81  0.00  0.00  0.00  0.77  0.00
  HS02004856HS02004862    1.00   0.00  0.22  0.00  0.78  0.00  0.00  0.00  0.77  0.00
  HS02004862HS02004870    1.00   0.00  0.00  0.00  1.00  0.00  0.00  0.00  0.06  0.00
  HS02004870HS02004876    1.00   0.00  0.00  0.00  0.96  0.04  0.00  0.00  0.92  0.00
  HS02004876HS02004881    1.00   0.04  0.00  0.00  0.74  0.22  0.00  0.00  0.00  0.00
  HS02004881HS02006253    1.00   0.01  0.13  0.00  0.22  0.04  0.00  0.61  0.11  0.00
  HS02004901HS02004770    1.00   0.18  0.00  0.00  0.82  0.00  0.00  0.00  0.01  0.00
  WS02001211WS02001212    1.00   0.00  0.06  0.00  0.94  0.00  0.00  0.00  0.00  0.00
  WS02001212WS02001213    1.00   0.06  0.01  0.00  0.32  0.00  0.61  0.00  0.00  0.00
  WS02001213WS02003059    1.00   0.00  0.00  0.00  0.99  0.00  0.00  0.00  0.00  0.00
  WS02003059WS02003060    1.00   0.00  0.00  0.00  1.00  0.00  0.00  0.00  0.03  0.00
  WS02003060WS02003069    1.00   0.00  0.00  0.00  0.97  0.03  0.00  0.00  0.55  0.00
  WS02003066WSF200        1.00   0.14  0.00  0.00  0.00  0.86  0.00  0.00  0.80  0.00
  WS02003067WS02003066    1.00   0.14  0.00  0.00  0.86  0.00  0.00  0.00  0.00  0.00
  WS02003069WS02003072    1.00   0.00  0.00  0.00  1.00  0.00  0.00  0.00  0.75  0.00
  WS02003072WS02003073    1.00   0.00  0.00  0.00  0.00  0.00  0.00  1.00  0.00  0.00
  WS02004138WS02004139    1.00   0.00  0.01  0.00  0.94  0.02  0.00  0.02  0.98  0.00
  WS02004139WS02001211    1.00   0.00  0.00  0.00  0.99  0.00  0.00  0.00  0.00  0.00
  WS02004401WS02004402    1.00   0.06  0.00  0.00  0.94  0.00  0.00  0.00  0.00  0.00
  WS02004402WS02004403    1.00   0.06  0.00  0.00  0.94  0.00  0.00  0.00  0.00  0.00
  WS02004403WS02004404    1.00   0.00  0.06  0.00  0.93  0.00  0.00  0.00  0.00  0.00
  WS02004404WS02004405    1.00   0.00  0.00  0.00  1.00  0.00  0.00  0.00  0.01  0.00
  WS02004405WS02004406    1.00   0.00  0.00  0.00  1.00  0.00  0.00  0.00  0.00  0.00
  WS02004406WS02004407    1.00   0.00  0.11  0.00  0.89  0.00  0.00  0.00  0.00  0.00
  WS02004407WS02004409    1.00   0.11  0.00  0.00  0.87  0.02  0.00  0.00  0.91  0.00
  WS02004409WS02004410    1.00   0.11  0.00  0.00  0.89  0.00  0.00  0.00  0.00  0.00
  WS02004410WS02004411    1.00   0.11  0.00  0.00  0.89  0.00  0.00  0.00  0.00  0.00
  WS02004411WS02004412    1.00   0.12  0.00  0.00  0.88  0.00  0.00  0.00  0.00  0.00
  WS02004412WS02004413    1.00   0.12  0.00  0.00  0.87  0.00  0.00  0.00  0.00  0.00
  WS02004413WS02003067    1.00   0.13  0.01  0.00  0.00  0.00  0.86  0.00  0.00  0.00
  WS02006109WS02006110    1.00   0.00  0.01  0.00  0.97  0.00  0.03  0.00  0.00  0.00
  WS02006110WS02006113    1.00   0.01  0.03  0.00  0.97  0.00  0.00  0.00  0.00  0.00
  WS02006111WS02006112    1.00   0.04  0.00  0.00  0.95  0.01  0.00  0.01  0.88  0.00
  WS02006112WS02006115    1.00   0.04  0.01  0.00  0.94  0.00  0.01  0.00  0.00  0.00
  WS02006113WS02006111    1.00   0.03  0.00  0.00  0.16  0.81  0.00  0.00  0.08  0.00
  WS02006115WS02006116    1.00   0.05  0.00  0.00  0.92  0.00  0.00  0.02  0.00  0.00
  WS02006116WS02004401    1.00   0.05  0.00  0.00  0.94  0.00  0.00  0.00  0.00  0.00
  WS02006228WS02006109    1.00   0.00  0.00  0.00  1.00  0.00  0.00  0.00  0.00  0.00
  WS02006229WS02006228    1.00   0.00  0.00  0.00  0.99  0.00  0.00  0.01  0.00  0.00
  WS02006230WS02006229    1.00   0.00  0.00  0.00  0.98  0.00  0.00  0.02  0.05  0.00
  WS02006231WS02006230    1.00   0.00  0.00  0.00  0.36  0.00  0.64  0.00  0.00  0.00
  WS02006232WS02006231    1.00   0.00  0.00  0.00  0.99  0.00  0.01  0.00  0.00  0.00
  WS02006234WS02006232    1.00   0.00  0.00  0.00  1.00  0.00  0.00  0.00  0.04  0.00
  WS02006235WS02006234    1.00   0.00  0.00  0.00  0.91  0.00  0.09  0.00  0.00  0.00
  WS02006238WS02006235    1.00   0.00  0.00  0.00  1.00  0.00  0.00  0.00  0.00  0.00
  WS02006239WS02006238    1.00   0.00  0.00  0.00  1.00  0.00  0.00  0.00  0.14  0.00
  WS02006240WS02006239    1.00   0.00  0.00  0.00  0.75  0.00  0.00  0.25  0.03  0.00
  WS02006242WS02006240    1.00   0.00  0.00  0.00  1.00  0.00  0.00  0.00  0.00  0.00
  WS02006243WS02006242    1.00   0.00  0.00  0.00  1.00  0.00  0.00  0.00  0.74  0.00
  WS02006245WS02006243    1.00   0.00  0.00  0.00  0.86  0.00  0.00  0.14  0.01  0.00
  WS02006247WS02006245    1.00   0.00  0.00  0.00  0.99  0.00  0.00  0.01  0.00  0.00
  WS02006248WS02006247    1.00   0.00  0.00  0.00  1.00  0.00  0.00  0.00  0.68  0.00
  WS02006249WS02006248    1.00   0.00  0.00  0.00  0.53  0.00  0.47  0.00  0.00  0.00
  WS02006251WS02006249    1.00   0.00  0.00  0.00  1.00  0.00  0.00  0.00  0.67  0.00
  WS02006252WS02006251    1.00   0.00  0.43  0.00  0.14  0.00  0.43  0.00  0.00  0.00
  WS02006253WS02006251    1.00   0.00  0.00  0.00  0.99  0.00  0.01  0.00  0.02  0.00
  WS02006256WS02006235    1.00   0.00  0.00  0.00  0.97  0.03  0.00  0.00  0.00  0.00
  WS02006280WS02006229    1.00   0.18  0.00  0.00  0.08  0.05  0.00  0.69  0.01  0.00
  WS02006284WS02006280    1.00   0.18  0.00  0.00  0.06  0.00  0.00  0.75  0.00  0.00
  WS02006287WS02006284    1.00   0.17  0.03  0.00  0.40  0.40  0.00  0.00  0.71  0.00
  WSF200WS02003060        1.00   0.00  0.14  0.00  0.57  0.29  0.00  0.00  0.76  0.00
  YS02001580YS02001583    1.00   0.36  0.41  0.00  0.24  0.00  0.00  0.00  0.67  0.00
  YS02001583YS02001586    1.00   0.40  0.31  0.00  0.29  0.00  0.00  0.00  0.68  0.00
  YS02001586YS02001590    1.00   0.18  0.00  0.00  0.48  0.04  0.00  0.30  0.34  0.00
  YS02001590YS02001593    1.00   0.18  0.01  0.00  0.06  0.00  0.76  0.00  0.00  0.00
  YS02001593YS02001596    1.00   0.19  0.00  0.00  0.08  0.01  0.00  0.73  0.01  0.00
  YS02001596YS02001600    1.00   0.19  0.00  0.00  0.17  0.04  0.00  0.60  0.04  0.00
  YS02001600YS02001601    1.00   0.18  0.01  0.00  0.81  0.00  0.00  0.00  0.69  0.00
  YS02001601YS02001602    1.00   0.18  0.01  0.00  0.81  0.00  0.00  0.00  0.00  0.00
  YS02001602YS02001605    1.00   0.19  0.00  0.00  0.81  0.00  0.00  0.00  0.00  0.00
  YS02001605YS02001607    1.00   0.19  0.00  0.00  0.81  0.00  0.00  0.00  0.01  0.00
  YS02001607YS02001610    1.00   0.18  0.01  0.00  0.81  0.00  0.00  0.00  0.03  0.00
  YS02001610YS02001613    1.00   0.18  0.00  0.00  0.82  0.00  0.00  0.00  0.02  0.00
  YS02001613YS02001616    1.00   0.18  0.00  0.00  0.82  0.00  0.00  0.00  0.01  0.00
  YS02001616YS02001619    1.00   0.18  0.00  0.00  0.82  0.00  0.00  0.00  0.00  0.00
  YS02001619YS02001622    1.00   0.18  0.00  0.00  0.82  0.00  0.00  0.00  0.37  0.00
  YS02001622YS02001625    1.00   0.18  0.00  0.00  0.82  0.00  0.00  0.00  0.09  0.00
  YS02001625YS02001629    1.00   0.18  0.05  0.00  0.10  0.00  0.67  0.00  0.00  0.00
  YS02001629YS02163301    1.00   0.20  0.01  0.00  0.79  0.00  0.00  0.00  0.00  0.00
  YS02001633YS02163601    1.00   0.00  0.01  0.00  0.99  0.00  0.00  0.00  0.17  0.00
  YS02001641YS02001644    1.00   0.00  0.00  0.00  1.00  0.00  0.00  0.00  0.00  0.00
  YS02001644YS02001647    1.00   0.00  0.23  0.00  0.77  0.00  0.00  0.00  0.00  0.00
  YS02001647YS02001649    1.00   0.00  0.23  0.00  0.35  0.42  0.00  0.00  0.61  0.00
  YS02001649YS02001757    1.00   0.00  0.00  0.00  0.54  0.46  0.00  0.00  0.64  0.00
  YS02001652YS02001649    1.00   0.00  0.00  0.00  0.97  0.03  0.00  0.00  0.85  0.00
  YS02001655YS02001652    1.00   0.00  0.00  0.00  0.13  0.04  0.00  0.84  0.06  0.00
  YS02001658YS02001655    1.00   0.00  0.19  0.00  0.39  0.42  0.00  0.00  0.79  0.00
  YS02001661YS02001658    1.00   0.19  0.00  0.00  0.28  0.53  0.00  0.00  0.76  0.00
  YS02001664YS02001661    1.00   0.18  0.00  0.00  0.71  0.11  0.00  0.00  0.87  0.00
  YS02001745YS02001748    1.00   0.00  0.00  0.00  0.00  0.00  0.00  1.00  0.00  0.00
  YS02001748YS02001751    1.00   0.00  0.00  0.00  0.63  0.37  0.00  0.00  0.87  0.00
  YS02001751YS02001754    1.00   0.00  0.00  0.00  0.06  0.01  0.00  0.93  0.04  0.00
  YS02001754YS02001757    1.00   0.00  0.00  0.00  1.00  0.00  0.00  0.00  0.95  0.00
  YS02001757CaochengTiaoxuchi    1.00   0.00  0.00  0.00  0.91  0.09  0.00  0.00  0.95  0.00
  YS02001759YS02001757    1.00   0.00  0.00  0.00  1.00  0.00  0.00  0.00  0.69  0.00
  YS02001762YS02001759    1.00   0.00  0.00  0.00  1.00  0.00  0.00  0.00  0.08  0.00
  YS02001765YS02001762    1.00   0.00  0.00  0.00  1.00  0.00  0.00  0.00  0.83  0.00
  YS02001767YS02001765    1.00   0.00  0.00  0.00  1.00  0.00  0.00  0.00  0.00  0.00
  YS02001770YS02001767    1.00   0.00  0.00  0.00  1.00  0.00  0.00  0.00  0.00  0.00
  YS02001774YS02001770    1.00   0.00  0.18  0.00  0.66  0.00  0.16  0.00  0.06  0.00
  YS02001779YS02001774    1.00   0.00  0.00  0.00  1.00  0.00  0.00  0.00  0.89  0.00
  YS02001783YS02001784    1.00   0.00  0.24  0.00  0.76  0.00  0.00  0.00  0.59  0.00
  YS02001784YS02001785    1.00   0.00  0.00  0.00  1.00  0.00  0.00  0.00  0.22  0.00
  YS02001786YS02001788    1.00   0.00  0.00  0.00  0.65  0.35  0.00  0.00  0.00  0.00
  YS02001788YS02001790    1.00   0.00  0.00  0.00  0.25  0.75  0.00  0.00  0.90  0.00
  YS02001790YS02001791    1.00   0.00  0.00  0.00  0.02  0.98  0.00  0.00  0.13  0.00
  YS02001791YS02001793    1.00   0.00  0.00  0.00  0.00  1.00  0.00  0.00  0.00  0.00
  YS02001793JiankangQianchi    1.00   0.00  0.00  0.00  1.00  0.00  0.00  0.00  1.00  0.00
  YS02001882YS02001884    1.00   0.20  0.01  0.00  0.79  0.00  0.00  0.00  0.00  0.00
  YS02001884YS02001887    1.00   0.14  0.03  0.00  0.83  0.00  0.00  0.00  0.00  0.00
  YS02001887YS02001890    1.00   0.00  0.00  0.00  0.92  0.00  0.08  0.00  0.00  0.00
  YS02001890YS02001895    1.00   0.00  0.22  0.00  0.78  0.00  0.00  0.00  0.00  0.00
  YS02001895YS02001898    1.00   0.22  0.00  0.00  0.76  0.00  0.02  0.00  0.00  0.00
  YS02001898YS02001901    1.00   0.21  0.01  0.00  0.78  0.00  0.00  0.00  0.01  0.00
  YS02001901YS02001904    1.00   0.21  0.00  0.00  0.79  0.00  0.00  0.00  0.00  0.00
  YS02001904YS02001907    1.00   0.00  0.21  0.00  0.79  0.00  0.00  0.00  0.00  0.00
  YS02001907YS02006553    1.00   0.00  0.05  0.00  0.95  0.00  0.00  0.00  0.00  0.00
  YS02001910YS02001907    1.00   0.00  0.00  0.00  0.93  0.01  0.00  0.06  0.13  0.00
  YS02001915YS02001910    1.00   0.00  0.00  0.00  0.95  0.05  0.00  0.00  0.21  0.00
  YS02001918YS02001915    1.00   0.00  0.00  0.00  0.94  0.06  0.00  0.00  0.82  0.00
  YS02001920YS02001918    1.00   0.00  0.00  0.00  1.00  0.00  0.00  0.00  0.00  0.00
  YS02001923YS02001920    1.00   0.00  0.00  0.00  1.00  0.00  0.00  0.00  0.99  0.00
  YS02001926YS02001923    1.00   0.00  0.15  0.00  0.00  0.00  0.85  0.00  0.00  0.00
  YS02001929YS02001926    1.00   0.00  0.18  0.00  0.82  0.00  0.00  0.00  0.87  0.00
  YS02006553YS02006556    1.00   0.02  0.00  0.00  0.98  0.00  0.00  0.00  0.03  0.00
  YS02006556YS02006558    1.00   0.00  0.00  0.00  1.00  0.00  0.00  0.00  0.00  0.00
  YS02006558YS02006561    1.00   0.24  0.00  0.00  0.00  0.76  0.00  0.00  0.17  0.00
  YS02006561YS02001783    1.00   0.24  0.00  0.00  0.04  0.73  0.00  0.00  0.72  0.00
  YS02163301YS02001633    1.00   0.00  0.20  0.00  0.80  0.00  0.00  0.00  0.00  0.00
  YS02163601YS02164001    1.00   0.00  0.16  0.00  0.84  0.00  0.00  0.00  0.00  0.00
  YS02164001YS02001641    1.00   0.01  0.15  0.00  0.84  0.00  0.00  0.00  0.06  0.00
  YSB1154YSB6556          1.00   0.18  0.00  0.00  0.82  0.00  0.00  0.00  0.02  0.00
  YSB1171HS02004479       1.00   0.11  0.00  0.00  0.86  0.00  0.00  0.03  0.11  0.00
  YSB1174YSB1171          1.00   0.13  0.03  0.00  0.84  0.00  0.00  0.00  0.00  0.00
  YSB6556YSB1171          1.00   0.11  0.07  0.00  0.82  0.00  0.00  0.00  0.00  0.00
  
  
  *************************
  Conduit Surcharge Summary
  *************************
  
  ----------------------------------------------------------------------------
                                                           Hours        Hours 
                         --------- Hours Full --------   Above Full   Capacity
  Conduit                Both Ends  Upstream  Dnstream   Normal Flow   Limited
  ----------------------------------------------------------------------------
  HS02004478WS02006287        0.02      0.02      0.17      0.01         0.01
  HS02004479HS02004480        0.18      0.18      0.20      0.01         0.01
  HS02004480HS02004478        0.13      0.18      0.13      0.95         0.13
  HS02004770HS02004777        0.11      0.11      0.11      0.09         0.05
  HS02004777HS02004785        0.07      0.07      0.11      0.01         0.01
  HS02004785HS02004788        0.06      0.07      0.06      0.65         0.06
  HS02004788HS02004792        0.06      0.06      0.15      0.01         0.01
  HS02004792HS02004799        0.15      0.15      0.23      0.01         0.01
  HS02004799HS02004480        0.18      0.18      0.23      0.28         0.01
  HS02004802HS02004478        0.13      0.13      0.18      0.01         0.01
  HS02004807HS02004802        0.16      0.16      0.18      0.01         0.01
  HS02004817HS02004807        0.16      0.16      0.50      0.01         0.01
  HS02004817HS02004824        0.05      0.05      0.50      0.01         0.01
  HS02004824HS02004830        0.01      0.01      0.05      0.01         0.01
  HS02004830HS02004837        0.01      0.01      0.01      0.01         0.01
  HS02004837HS02004842        0.01      0.01      0.11      0.01         0.01
  HS02004842HS02004848        0.01      0.01      0.11      0.01         0.01
  HS02004870HS02004876        0.01      0.01      0.01      0.01         0.01
  HS02004876HS02004881        0.01      0.01      0.01      0.65         0.01
  HS02004881HS02006253        0.01      0.01      0.54      0.01         0.01
  HS02004901HS02004770        0.11      0.11      0.12      0.01         0.01
  WS02003072WS02003073        0.01      0.01      0.01      1.42         0.01
  WS02004401WS02004402        0.71      0.71      0.73      0.57         0.56
  WS02004402WS02004403        0.73      0.73      0.73      0.71         0.70
  WS02004403WS02004404        0.73      0.73      0.83      0.01         0.01
  WS02004404WS02004405        0.81      0.83      0.81      2.34         0.81
  WS02004405WS02004406        0.79      0.81      0.79      0.96         0.79
  WS02004406WS02004407        0.01      0.01      0.79      0.01         0.01
  WS02004407WS02004409        0.01      0.01      0.33      0.01         0.01
  WS02004409WS02004410        0.32      0.33      0.32      0.63         0.32
  WS02004410WS02004411        0.30      0.32      0.30      0.68         0.30
  WS02004411WS02004412        0.25      0.30      0.25      0.70         0.25
  WS02004412WS02004413        0.25      0.25      0.51      0.01         0.01
  WS02004413WS02003067        0.01      0.01      0.51      0.01         0.01
  WS02006109WS02006110        0.94      0.94      1.18      0.94         0.01
  WS02006110WS02006113        0.47      0.47      1.16      0.01         0.01
  WS02006111WS02006112        0.46      0.46      1.33      0.01         0.01
  WS02006112WS02006115        0.64      0.64      1.02      0.01         0.01
  WS02006113WS02006111        0.46      0.47      0.46      0.53         0.46
  WS02006115WS02006116        0.65      0.65      0.65      0.62         0.62
  WS02006116WS02004401        0.70      0.70      0.71      0.68         0.67
  WS02006228WS02006109        1.14      1.18      1.14      1.45         1.14
  WS02006229WS02006228        1.13      1.15      1.13      1.29         1.13
  WS02006230WS02006229        1.20      1.22      1.20      2.43         0.71
  WS02006231WS02006230        0.78      0.78      0.80      1.73         0.37
  WS02006232WS02006231        0.79      0.79      0.91      0.01         0.04
  WS02006234WS02006232        0.81      0.81      0.91      0.01         0.01
  WS02006235WS02006234        0.79      0.79      0.81      1.54         0.36
  WS02006238WS02006235        0.82      0.82      0.84      0.01         0.12
  WS02006239WS02006238        0.79      0.79      0.82      0.29         0.01
  WS02006240WS02006239        0.75      0.75      0.76      0.29         0.01
  WS02006242WS02006240        0.75      0.75      0.77      0.57         0.30
  WS02006243WS02006242        0.72      0.72      0.75      0.01         0.01
  WS02006245WS02006243        0.70      0.70      0.71      0.04         0.01
  WS02006247WS02006245        0.70      0.70      0.70      1.21         0.33
  WS02006248WS02006247        0.69      0.69      0.70      0.01         0.01
  WS02006249WS02006248        0.68      0.68      0.69      0.66         0.01
  WS02006251WS02006249        0.68      0.68      0.69      0.54         0.46
  WS02006252WS02006251        0.67      0.68      0.76      0.23         0.01
  WS02006253WS02006251        0.67      0.67      0.68      0.27         0.01
  WS02006256WS02006235        1.87      1.91      7.00      0.31         0.01
  WS02006280WS02006229        0.26      0.26      0.32      0.01         0.01
  WS02006284WS02006280        0.19      0.19      0.25      0.01         0.01
  WS02006287WS02006284        0.12      0.12      0.20      0.01         0.01
  YS02001580YS02001583        0.01      0.01      0.02      0.01         0.01
  YS02001583YS02001586        0.01      0.01      0.14      0.01         0.01
  YS02001586YS02001590        0.15      0.15      0.20      0.01         0.01
  YS02001590YS02001593        0.20      0.20      0.21      0.20         0.01
  YS02001593YS02001596        0.21      0.21      0.27      0.01         0.01
  YS02001596YS02001600        0.30      0.30      0.36      0.01         0.01
  YS02001600YS02001601        0.40      0.40      0.60      0.01         0.01
  YS02001601YS02001602        0.52      0.52      0.64      0.37         0.01
  YS02001602YS02001605        0.48      0.48      0.52      1.42         0.01
  YS02001605YS02001607        0.45      0.48      0.45      0.57         0.45
  YS02001607YS02001610        0.15      0.15      0.17      0.01         0.01
  YS02001610YS02001613        0.14      0.14      0.17      0.01         0.01
  YS02001613YS02001616        0.11      0.11      0.14      0.01         0.01
  YS02001616YS02001619        0.10      0.10      0.11      0.01         0.01
  YS02001619YS02001622        0.09      0.10      0.09      0.22         0.09
  YS02001622YS02001625        0.09      0.09      0.23      0.01         0.01
  YS02001625YS02001629        0.01      0.01      0.23      0.01         0.01
  YS02001629YS02163301        0.22      0.22      0.23      0.13         0.11
  YS02001633YS02163601        0.24      0.24      0.26      0.16         0.15
  YS02001641YS02001644        0.12      0.17      0.12      0.68         0.12
  YS02001644YS02001647        0.01      0.01      0.12      0.01         0.01
  YS02001649YS02001757        0.01      0.01      0.01      0.02         0.01
  YS02001770YS02001767        0.01      0.01      0.01      0.13         0.01
  YS02001783YS02001784        0.01      0.01      0.01      0.18         0.01
  YS02001784YS02001785        0.01      0.01      0.01      0.32         0.01
  YS02001786YS02001788        0.01      0.01      0.01      0.25         0.01
  YS02001793JiankangQianchi        0.01      0.01      6.52      0.01         0.01
  YS02001890YS02001895        0.01      0.01      0.05      0.01         0.01
  YS02001904YS02001907        0.01      0.01      0.24      0.01         0.01
  YS02001907YS02006553        0.32      0.32      0.36      0.01         0.01
  YS02001910YS02001907        0.05      0.05      0.22      0.01         0.01
  YS02001915YS02001910        0.01      0.01      0.05      0.01         0.01
  YS02006553YS02006556        0.15      0.15      0.24      0.01         0.01
  YS02006556YS02006558        0.20      0.20      0.24      0.01         0.01
  YS02006558YS02006561        0.01      0.15      0.01      0.29         0.01
  YS02163301YS02001633        0.23      0.23      0.25      0.01         0.01
  YS02163601YS02164001        0.18      0.18      0.26      0.06         0.01
  YS02164001YS02001641        0.17      0.18      0.17      0.30         0.17
  YSB1154YSB6556              0.22      0.22      0.30      0.01         0.01
  YSB1171HS02004479           0.14      0.14      0.30      0.01         0.01
  YSB1174YSB1171              0.26      0.26      0.44      0.01         0.01
  YSB6556YSB1171              0.22      0.22      0.55      0.01         0.01
  
  
  ***************
  Pumping Summary
  ***************
  
  ---------------------------------------------------------------------------------------------------------
                                                  Min       Avg       Max     Total     Power    % Time Off
                        Percent   Number of      Flow      Flow      Flow    Volume     Usage    Pump Curve
  Pump                 Utilized   Start-Ups       LPS       LPS       LPS  10^6 ltr     Kw-hr    Low   High
  ---------------------------------------------------------------------------------------------------------
  CC-R1                    8.99          27      0.00    683.00    683.00     1.768     29.64    0.0  100.0
  CC-R2                   11.77          23      0.00    683.00    683.00     2.315     38.89    0.0  100.0
  CC-S1                   10.47          26      0.00    200.00    200.00     0.603      4.26    0.0    0.0
  CC-S2                    9.14          40      0.00    200.00    200.00     0.527      3.95    0.0    0.0
  JK-R1                    2.68          13      0.00   1000.00   1000.00     0.773      6.37    0.0    0.0
  JK-R2                    1.81          12      0.00   1000.00   1000.00     0.521      3.59    0.0    0.0
  JK-S                     5.09          31      0.00    300.00    300.00     0.440      8.47    0.0    0.0
  XR-1                    97.91           2      0.00     95.00     95.00     2.679      9.62    0.0    0.0
  XR-2                    93.94           2      0.00     95.00     95.00     2.570      8.78    0.0    0.0
  XR-3                     0.00           1      0.00     95.00     95.00     0.000      0.00    0.0    0.0
  XR-4                     0.00           1      0.00     95.00     95.00     0.000      0.00    0.0    0.0
  

  Analysis begun on:  Thu Jun 15 19:58:51 2023
  Analysis ended on:  Thu Jun 15 19:59:02 2023
  Total elapsed time: 00:00:11