
  OWA STORM WATER MANAGEMENT MODEL - VERSION v5.1.14 (OWA 2022-07-31)
  --------------------------------------------------------------

  WARNING 04: minimum elevation drop used for Conduit WS02004404WS02004405
  WARNING 03: negative offset ignored for Link YS02001904YS02001907
  
  *********************************************************
  NOTE: The summary statistics displayed in this report are
  based on results found at every computational time step,  
  not just on results from each reporting time step.
  *********************************************************
  
  ****************
  Analysis Options
  ****************
  Flow Units ............... LPS
  Process Models:
    Rainfall/Runoff ........ YES
    RDII ................... NO
    Snowmelt ............... NO
    Groundwater ............ NO
    Flow Routing ........... YES
    Ponding Allowed ........ NO
    Water Quality .......... NO
  Infiltration Method ...... HORTON
  Flow Routing Method ...... DYNWAVE
  Surcharge Method ......... EXTRAN
  Starting Date ............ 08/28/2015 08:00:00
  Ending Date .............. 08/28/2015 16:00:00
  Antecedent Dry Days ...... 8.0
  Report Time Step ......... 00:01:00
  Wet Time Step ............ 00:01:00
  Dry Time Step ............ 00:01:00
  Routing Time Step ........ 30.00 sec
  Variable Time Step ....... YES
  Maximum Trials ........... 8
  Number of Threads ........ 2
  Head Tolerance ........... 0.001500 m
  
  
  **************************        Volume         Depth
  Runoff Quantity Continuity     hectare-m            mm
  **************************     ---------       -------
  Initial LID Storage ......         0.072         1.184
  Total Precipitation ......         2.052        33.871
  Evaporation Loss .........         0.000         0.000
  Infiltration Loss ........         0.184         3.036
  Surface Runoff ...........         1.474        24.336
  Final Storage ............         0.466         7.698
  Continuity Error (%) .....        -0.044
  
  
  **************************        Volume        Volume
  Flow Routing Continuity        hectare-m      10^6 ltr
  **************************     ---------     ---------
  Dry Weather Inflow .......         0.630         6.296
  Wet Weather Inflow .......         1.474        14.743
  Groundwater Inflow .......         0.000         0.000
  RDII Inflow ..............         0.000         0.000
  External Inflow ..........         0.105         1.045
  External Outflow .........         1.882        18.823
  Flooding Loss ............         0.316         3.164
  Evaporation Loss .........         0.000         0.000
  Exfiltration Loss ........         0.000         0.000
  Initial Stored Volume ....         0.303         3.031
  Final Stored Volume ......         0.321         3.213
  Continuity Error (%) .....        -0.340
  
  
  *************************
  Highest Continuity Errors
  *************************
  Node YS02001583 (-6.82%)
  Node YS02001884 (5.12%)
  Node WS02006256 (-4.50%)
  Node YS02001774 (2.69%)
  Node HS02004842 (2.47%)
  
  
  ***************************
  Time-Step Critical Elements
  ***************************
  Link WS02006280WS02006229 (50.63%)
  Link WS02006252WS02006251 (24.04%)
  Link WS02004404WS02004405 (7.07%)
  Link WS02006238WS02006235 (6.43%)
  Link YS02001791YS02001793 (2.63%)
  
  
  ********************************
  Highest Flow Instability Indexes
  ********************************
  Link WS02006113WS02006111 (22)
  Link WS02006229WS02006228 (16)
  Link WS02006256WS02006235 (15)
  Link WS02004404WS02004405 (14)
  Link WS02006238WS02006235 (14)
  
  
  *************************
  Routing Time Step Summary
  *************************
  Minimum Time Step           :     0.01 sec
  Average Time Step           :     2.50 sec
  Maximum Time Step           :     6.46 sec
  Percent in Steady State     :    -0.00
  Average Iterations per Step :     3.07
  Percent Not Converging      :    10.57
  
  
  ***************************
  Subcatchment Runoff Summary
  ***************************
  
  ------------------------------------------------------------------------------------------------------------------------------
                            Total      Total      Total      Total     Imperv       Perv      Total       Total     Peak  Runoff
                           Precip      Runon       Evap      Infil     Runoff     Runoff     Runoff      Runoff   Runoff   Coeff
  Subcatchment                 mm         mm         mm         mm         mm         mm         mm    10^6 ltr      LPS
  ------------------------------------------------------------------------------------------------------------------------------
  sub0                      33.87       0.00       0.00       0.94      30.24       1.43      31.68        0.03    18.38   0.935
  sub1                      33.87       0.00       0.00       1.40      25.90       1.94      27.85        0.19   104.79   0.822
  sub2                      33.87       0.00       0.00       6.12      18.93       5.48      24.41        0.23   101.07   0.721
  sub3                      33.87       0.00       0.00       6.47      18.73       5.03      23.76        0.53   213.80   0.701
  sub4                      33.87       0.00       0.00       1.50      25.46       1.79      27.26        0.57   236.15   0.805
  sub5                      33.87       0.00       0.00       0.80      25.06       1.17      26.23        0.30   173.40   0.774
  sub7                      33.87       0.00       0.00       0.95      22.91       1.41      24.33        0.08    54.29   0.718
  sub8                      33.87       0.00       0.00       0.93      22.26       1.37      23.63        0.15    96.62   0.698
  sub9                      33.87       0.00       0.00       0.90      21.58       1.33      22.91        0.11    70.37   0.676
  sub10                     33.87       0.00       0.00       0.90      24.28       1.31      25.59        0.28   169.30   0.755
  sub11                     33.87       0.00       0.00       0.82      22.57       1.23      23.80        0.28   179.09   0.703
  sub12                     33.87       0.00       0.00       1.44      22.95       2.14      25.09        0.22   153.73   0.741
  sub14                     33.87       0.00       0.00       0.89      21.38       1.31      22.69        0.22   137.27   0.670
  sub15                     33.87       0.00       0.00       3.96      19.21       4.63      23.84        0.41   220.97   0.704
  sub16                     33.87       0.00       0.00       4.22      18.75       5.40      24.14        0.25   151.23   0.713
  sub17                     33.87       0.00       0.00       4.52      20.69       5.63      26.32        0.23   131.37   0.777
  sub22                     33.87       0.00       0.00       6.95      17.94       7.16      25.09        1.59   788.20   0.741
  sub23                     33.87       0.00       0.00       5.26      18.47       6.04      24.52        1.17   632.56   0.724
  sub60                     33.87       0.00       0.00       1.28      22.08       1.86      23.94        0.31   204.47   0.707
  sub61                     33.87       0.00       0.00       1.95      22.06       2.76      24.81        0.46   292.43   0.733
  sub62                     33.87       0.00       0.00       0.87      23.51       1.26      24.77        0.68   403.45   0.731
  sub63                     33.87       0.00       0.00       3.54      18.89       4.50      23.39        0.53   313.24   0.691
  sub64                     33.87       0.00       0.00       1.70      21.50       2.26      23.76        0.57   314.95   0.701
  sub65                     33.87       0.00       0.00       1.56      23.20       2.06      25.25        0.70   364.57   0.746
  sub66                     33.87       0.00       0.00       4.04      18.24       3.75      21.99        1.03   440.66   0.649
  sub67                     33.87       0.00       0.00       0.87      24.11       1.32      25.43        0.47   329.27   0.751
  sub68                     33.87       0.00       0.00       1.50      21.29       2.12      23.40        0.64   399.44   0.691
  sub69                     33.87       0.00       0.00       1.32      22.74       2.71      25.45        0.94   484.81   0.751
  sub70                     33.87       0.00       0.00       4.31      18.20       5.12      23.31        0.67   259.51   0.688
  sub71                     33.87       0.00       0.00       0.80      21.35       1.14      22.49        0.59   325.51   0.664
  sub72                     33.87       0.00       0.00       0.76      23.04       1.05      24.10        0.33   162.37   0.711
  

  ***********************
  LID Performance Summary
  ***********************

  --------------------------------------------------------------------------------------------------------------------
                                         Total      Evap     Infil   Surface    Drain    Initial     Final  Continuity
                                        Inflow      Loss      Loss   Outflow   Outflow   Storage   Storage       Error
  Subcatchment      LID Control             mm        mm        mm        mm        mm        mm        mm           %
  --------------------------------------------------------------------------------------------------------------------
  sub1              GreenRoof            33.87      0.00      0.00      0.00      0.00      7.05     40.97       -0.13
  sub2              GreenRoof            33.87      0.00      0.00      0.00      0.00      7.05     40.97       -0.13
  sub3              GreenRoof            33.87      0.00      0.00      0.00      0.00      7.05     40.97       -0.13
  sub4              GreenRoof            33.87      0.00      0.00      0.00      0.00      7.05     40.97       -0.13
  sub5              GreenRoof            33.87      0.00      0.00      0.00      0.00      7.05     40.97       -0.13
  sub7              GreenRoof            33.87      0.00      0.00      0.00      0.00      7.05     40.97       -0.13
  sub8              GreenRoof            33.87      0.00      0.00      0.00      0.00      7.05     40.97       -0.13
  sub9              GreenRoof            33.87      0.00      0.00      0.00      0.00      7.05     40.97       -0.13
  sub10             GreenRoof            33.87      0.00      0.00      0.00      0.00      7.05     40.97       -0.13
  sub11             GreenRoof            33.87      0.00      0.00      0.00      0.00      7.05     40.97       -0.13
  sub12             GreenRoof            33.87      0.00      0.00      0.00      0.00      7.05     40.97       -0.13
  sub14             GreenRoof            33.87      0.00      0.00      0.00      0.00      7.05     40.97       -0.13
  sub15             GreenRoof            33.87      0.00      0.00      0.00      0.00      7.05     40.97       -0.13
  sub16             GreenRoof            33.87      0.00      0.00      0.00      0.00      7.05     40.97       -0.13
  sub17             GreenRoof            33.87      0.00      0.00      0.00      0.00      7.05     40.97       -0.13
  sub22             GreenRoof            33.87      0.00      0.00      0.00      0.00      7.05     40.97       -0.13
  sub23             GreenRoof            33.87      0.00      0.00      0.00      0.00      7.05     40.97       -0.13
  sub60             GreenRoof            33.87      0.00      0.00      0.00      0.00      7.05     40.97       -0.13
  sub61             GreenRoof            33.87      0.00      0.00      0.00      0.00      7.05     40.97       -0.13
  sub62             GreenRoof            33.87      0.00      0.00      0.00      0.00      7.05     40.97       -0.13
  sub63             GreenRoof            33.87      0.00      0.00      0.00      0.00      7.05     40.97       -0.13
  sub64             GreenRoof            33.87      0.00      0.00      0.00      0.00      7.05     40.97       -0.13
  sub65             GreenRoof            33.87      0.00      0.00      0.00      0.00      7.05     40.97       -0.13
  sub66             GreenRoof            33.87      0.00      0.00      0.00      0.00      7.05     40.97       -0.13
  sub67             GreenRoof            33.87      0.00      0.00      0.00      0.00      7.05     40.97       -0.13
  sub68             GreenRoof            33.87      0.00      0.00      0.00      0.00      7.05     40.97       -0.13
  sub69             GreenRoof            33.87      0.00      0.00      0.00      0.00      7.05     40.97       -0.13
  sub70             GreenRoof            33.87      0.00      0.00      0.00      0.00      7.05     40.97       -0.13
  sub71             GreenRoof            33.87      0.00      0.00      0.00      0.00      7.05     40.97       -0.13
  sub72             GreenRoof            33.87      0.00      0.00      0.00      0.00      7.05     40.97       -0.13
  
  ******************
  Node Depth Summary
  ******************
  
  ---------------------------------------------------------------------------------
                                 Average  Maximum  Maximum  Time of Max    Reported
                                   Depth    Depth      HGL   Occurrence   Max Depth
  Node                 Type       Meters   Meters   Meters  days hr:min      Meters
  ---------------------------------------------------------------------------------
  HS02004478           JUNCTION     0.16     1.39    10.62     0  01:50        1.12
  HS02004479           JUNCTION     0.24     1.67    10.87     0  01:50        1.37
  HS02004480           JUNCTION     0.20     1.62    10.86     0  01:50        1.33
  HS02004770           JUNCTION     0.22     1.42    11.25     0  01:50        1.42
  HS02004777           JUNCTION     0.24     1.48    11.28     0  01:50        1.42
  HS02004785           JUNCTION     0.14     1.49    11.39     0  01:50        1.27
  HS02004788           JUNCTION     0.10     1.42    11.32     0  01:50        1.24
  HS02004792           JUNCTION     0.14     1.60    11.12     0  01:48        1.53
  HS02004799           JUNCTION     0.26     1.76    10.97     0  01:50        1.54
  HS02004802           JUNCTION     0.26     1.40    10.53     0  01:50        1.24
  HS02004807           JUNCTION     0.22     1.33    10.50     0  01:55        1.19
  HS02004817           JUNCTION     0.52     1.69    10.53     0  01:55        1.51
  HS02004824           JUNCTION     0.09     1.19    10.60     0  01:55        0.97
  HS02004830           JUNCTION     0.10     1.18    10.65     0  01:55        0.91
  HS02004837           JUNCTION     0.07     1.08    10.66     0  01:55        0.80
  HS02004842           JUNCTION     0.37     1.28    10.55     0  01:55        1.10
  HS02004848           JUNCTION     0.05     0.98    10.58     0  01:55        0.76
  HS02004852           JUNCTION     0.06     1.45    10.96     0  01:54        0.80
  HS02004856           JUNCTION     0.12     1.06    10.48     0  01:55        0.84
  HS02004862           JUNCTION     0.07     1.18    10.56     0  01:54        0.84
  HS02004870           JUNCTION     0.06     1.19    10.48     0  01:53        0.87
  HS02004876           JUNCTION     0.11     1.28    10.31     0  01:53        1.09
  HS02004881           JUNCTION     0.05     1.26    10.29     0  01:53        0.98
  HS02004901           JUNCTION     0.22     1.42    11.24     0  01:50        1.42
  WS02001211           JUNCTION     0.62     0.84     5.68     0  01:56        0.84
  WS02001212           JUNCTION     0.36     0.60     5.67     0  01:55        0.56
  WS02001213           JUNCTION     0.57     0.91     5.67     0  01:55        0.91
  WS02003059           JUNCTION     0.63     0.95     5.64     0  01:57        0.93
  WS02003060           JUNCTION     0.35     0.68     5.61     0  01:58        0.68
  WS02003066           JUNCTION     0.21     0.44     5.99     0  01:56        0.44
  WS02003067           JUNCTION     0.51     0.92     6.24     0  01:50        0.92
  WS02003069           JUNCTION     0.40     0.76     5.35     0  01:58        0.76
  WS02003072           JUNCTION     0.46     0.80     5.17     0  01:57        0.80
  WS02003073           JUNCTION     0.27     0.50     4.57     0  01:58        0.50
  WS02004138           JUNCTION     0.13     0.14     7.39     0  00:29        0.14
  WS02004139           JUNCTION     0.56     0.75     5.66     0  01:55        0.75
  WS02004401           JUNCTION     0.68     2.22     8.22     0  01:47        1.71
  WS02004402           JUNCTION     0.70     2.19     8.15     0  01:47        1.66
  WS02004403           JUNCTION     0.71     2.10     8.03     0  01:47        1.59
  WS02004404           JUNCTION     0.78     2.07     7.92     0  01:47        1.61
  WS02004405           JUNCTION     0.77     1.96     7.81     0  01:47        1.57
  WS02004406           JUNCTION     0.77     1.63     7.46     0  01:47        1.46
  WS02004407           JUNCTION     0.22     0.82     7.13     0  01:52        0.81
  WS02004409           JUNCTION     0.46     1.31     7.08     0  01:52        1.31
  WS02004410           JUNCTION     0.47     1.27     6.99     0  01:49        1.22
  WS02004411           JUNCTION     0.48     1.62     7.30     0  01:49        1.15
  WS02004412           JUNCTION     0.49     1.18     6.82     0  01:49        1.07
  WS02004413           JUNCTION     0.64     1.17     6.64     0  01:49        1.12
  WS02006109           JUNCTION     0.84     2.64     9.26     0  01:47        2.64
  WS02006110           JUNCTION     0.79     2.76     9.34     0  01:47        2.33
  WS02006111           JUNCTION     0.32     2.28     8.99     0  01:47        1.57
  WS02006112           JUNCTION     0.87     2.68     8.56     0  01:47        2.17
  WS02006113           JUNCTION     0.40     2.61     9.50     0  01:47        1.71
  WS02006115           JUNCTION     0.59     2.28     8.42     0  01:47        1.78
  WS02006116           JUNCTION     0.66     2.27     8.31     0  01:47        1.78
  WS02006228           JUNCTION     0.87     3.01     9.66     0  01:50        2.91
  WS02006229           JUNCTION     0.86     3.19     9.89     0  01:50        3.03
  WS02006230           JUNCTION     0.81     2.65     9.39     0  01:48        2.65
  WS02006231           JUNCTION     0.55     2.24     9.36     0  01:58        2.24
  WS02006232           JUNCTION     0.65     2.18     9.22     0  01:48        2.18
  WS02006234           JUNCTION     0.53     1.96     9.12     0  01:45        1.96
  WS02006235           JUNCTION     0.54     2.00     9.16     0  02:10        1.93
  WS02006238           JUNCTION     0.56     2.02     9.16     0  02:10        1.93
  WS02006239           JUNCTION     0.50     2.03     9.24     0  01:45        1.83
  WS02006240           JUNCTION     0.45     2.10     9.39     0  01:45        1.71
  WS02006242           JUNCTION     0.49     1.55     8.82     0  01:46        1.55
  WS02006243           JUNCTION     0.39     1.48     8.90     0  01:46        1.38
  WS02006245           JUNCTION     0.38     1.56     9.04     0  01:46        1.27
  WS02006247           JUNCTION     0.38     1.47     8.97     0  01:46        1.24
  WS02006248           JUNCTION     0.33     1.10     8.69     0  01:46        1.10
  WS02006249           JUNCTION     0.36     1.09     8.69     0  01:46        1.09
  WS02006251           JUNCTION     0.39     2.08     9.75     0  01:53        1.97
  WS02006252           JUNCTION     0.25     1.50     9.74     0  00:00        1.44
  WS02006253           JUNCTION     0.43     2.66    10.31     0  01:53        2.30
  WS02006256           JUNCTION     0.88     2.35     9.28     0  00:00        2.35
  WS02006280           JUNCTION     0.21     1.71     9.98     0  01:50        1.52
  WS02006284           JUNCTION     0.49     1.86    10.26     0  01:50        1.63
  WS02006287           JUNCTION     0.22     1.58    10.54     0  01:50        1.32
  WSF200               JUNCTION     0.20     0.51     5.74     0  01:58        0.50
  YS02001580           JUNCTION     0.03     1.05     9.59     0  01:51        0.63
  YS02001583           JUNCTION     0.06     1.14     9.64     0  01:51        0.68
  YS02001586           JUNCTION     0.12     1.13     9.30     0  01:51        1.00
  YS02001590           JUNCTION     0.20     1.39     9.25     0  01:51        1.26
  YS02001593           JUNCTION     0.14     1.46     9.32     0  01:49        1.20
  YS02001596           JUNCTION     0.19     1.80     9.22     0  01:49        1.62
  YS02001600           JUNCTION     0.25     1.87     9.00     0  01:49        1.84
  YS02001601           JUNCTION     0.44     2.06     8.90     0  01:49        2.06
  YS02001602           JUNCTION     0.36     1.87     8.77     0  01:51        1.87
  YS02001605           JUNCTION     0.33     1.77     8.68     0  01:51        1.73
  YS02001607           JUNCTION     0.33     1.63     8.48     0  01:51        1.41
  YS02001610           JUNCTION     0.37     1.68     8.48     0  01:51        1.44
  YS02001613           JUNCTION     0.33     1.66     8.50     0  01:51        1.38
  YS02001616           JUNCTION     0.26     1.60     8.51     0  01:51        1.30
  YS02001619           JUNCTION     0.24     1.58     8.51     0  01:51        1.27
  YS02001622           JUNCTION     0.23     1.56     8.46     0  01:51        1.27
  YS02001625           JUNCTION     0.49     1.78     8.38     0  01:51        1.49
  YS02001629           JUNCTION     0.34     1.85     8.40     0  01:51        1.48
  YS02001633           JUNCTION     0.42     1.84     8.30     0  01:51        1.50
  YS02001641           JUNCTION     0.40     1.42     7.85     0  01:51        1.25
  YS02001644           JUNCTION     0.40     1.25     7.69     0  01:51        1.16
  YS02001647           JUNCTION     0.18     0.82     7.43     0  01:53        0.80
  YS02001649           JUNCTION     0.20     0.95     7.34     0  01:53        0.91
  YS02001652           JUNCTION     0.10     0.75     7.34     0  01:53        0.73
  YS02001655           JUNCTION     0.06     0.47     7.32     0  01:52        0.43
  YS02001658           JUNCTION     0.05     0.25     7.39     0  01:52        0.25
  YS02001661           JUNCTION     0.11     0.31     7.71     0  01:51        0.31
  YS02001664           JUNCTION     0.04     0.21     8.14     0  01:51        0.21
  YS02001745           JUNCTION     0.04     0.19     7.71     0  01:50        0.19
  YS02001748           JUNCTION     0.04     0.22     7.29     0  01:50        0.22
  YS02001751           JUNCTION     0.05     0.29     7.17     0  01:57        0.25
  YS02001754           JUNCTION     0.06     0.60     7.21     0  01:56        0.59
  YS02001757           JUNCTION     0.20     0.91     7.17     0  01:56        0.90
  YS02001759           JUNCTION     0.14     0.82     7.18     0  01:55        0.81
  YS02001762           JUNCTION     0.14     0.80     7.20     0  01:55        0.78
  YS02001765           JUNCTION     0.12     0.76     7.21     0  01:55        0.74
  YS02001767           JUNCTION     0.13     0.72     7.21     0  01:55        0.72
  YS02001770           JUNCTION     0.14     0.73     7.23     0  01:55        0.72
  YS02001774           JUNCTION     0.21     0.81     7.23     0  01:54        0.81
  YS02001779           JUNCTION     0.04     0.57     7.25     0  01:55        0.55
  YS02001783           JUNCTION     0.18     0.92     7.06     0  01:56        0.91
  YS02001784           JUNCTION     0.20     0.86     6.93     0  01:56        0.85
  YS02001786           JUNCTION     0.17     0.69     6.72     0  01:56        0.69
  YS02001788           JUNCTION     0.12     0.54     6.52     0  01:56        0.54
  YS02001790           JUNCTION     0.15     0.64     6.28     0  01:57        0.64
  YS02001791           JUNCTION     0.10     0.38     5.85     0  01:56        0.38
  YS02001793           JUNCTION     0.05     0.19     5.02     0  01:58        0.19
  YS02001882           JUNCTION     0.22     1.05     7.77     0  01:55        1.03
  YS02001884           JUNCTION     0.31     1.14     7.76     0  01:55        1.13
  YS02001887           JUNCTION     0.38     1.22     7.76     0  01:55        1.19
  YS02001890           JUNCTION     0.41     1.23     7.74     0  01:56        1.22
  YS02001895           JUNCTION     0.19     0.98     7.73     0  01:56        0.98
  YS02001898           JUNCTION     0.20     1.00     7.73     0  01:56        1.00
  YS02001901           JUNCTION     0.31     1.12     7.73     0  01:55        1.12
  YS02001904           JUNCTION     0.29     1.10     7.73     0  01:55        1.09
  YS02001907           JUNCTION     0.60     1.44     7.73     0  01:55        1.43
  YS02001910           JUNCTION     0.40     1.24     7.75     0  01:56        1.23
  YS02001915           JUNCTION     0.22     1.05     7.77     0  01:54        1.03
  YS02001918           JUNCTION     0.08     0.70     7.76     0  01:56        0.69
  YS02001920           JUNCTION     0.17     0.76     7.77     0  01:55        0.74
  YS02001923           JUNCTION     0.05     0.51     7.77     0  01:55        0.50
  YS02001926           JUNCTION     0.11     0.36     7.80     0  01:56        0.36
  YS02001929           JUNCTION     0.05     0.19     7.88     0  01:53        0.19
  YS02006553           JUNCTION     0.60     1.43     7.72     0  01:55        1.43
  YS02006556           JUNCTION     0.58     1.38     7.69     0  01:55        1.37
  YS02006558           JUNCTION     0.62     1.42     7.68     0  01:56        1.41
  YS02006561           JUNCTION     0.10     0.50     7.16     0  01:56        0.49
  YS02163301           JUNCTION     0.36     1.91     8.42     0  01:51        1.46
  YS02163601           JUNCTION     0.45     1.69     8.09     0  01:51        1.41
  YS02164001           JUNCTION     0.39     1.52     7.98     0  01:51        1.27
  YSB1154              JUNCTION     0.37     1.96    11.01     0  01:50        1.55
  YSB1171              JUNCTION     0.51     1.95    10.85     0  01:50        1.68
  YSB1174              JUNCTION     0.32     1.81    10.92     0  01:50        1.48
  YSB6556              JUNCTION     0.27     1.80    10.97     0  01:50        1.42
  CC-1                 OUTFALL      0.00     0.00     0.00     0  00:00        0.00
  CC-2                 OUTFALL      0.00     0.00     0.00     0  00:00        0.00
  JK-1                 OUTFALL      0.00     0.00     0.00     0  00:00        0.00
  JK-2                 OUTFALL      0.00     0.00     0.00     0  00:00        0.00
  WSC                  OUTFALL      0.27     0.50     1.17     0  01:58        0.50
  CC-storage           STORAGE      0.55     0.85     6.35     0  02:15        0.85
  JK-storage           STORAGE      1.33     4.21     5.01     0  01:54        4.14
  XR-storage           STORAGE      7.84     9.26     7.26     0  08:00        9.26
  
  
  *******************
  Node Inflow Summary
  *******************
  
  -------------------------------------------------------------------------------------------------
                                  Maximum  Maximum                  Lateral       Total        Flow
                                  Lateral    Total  Time of Max      Inflow      Inflow     Balance
                                   Inflow   Inflow   Occurrence      Volume      Volume       Error
  Node                 Type           LPS      LPS  days hr:min    10^6 ltr    10^6 ltr     Percent
  -------------------------------------------------------------------------------------------------
  HS02004478           JUNCTION      0.00  2079.88     0  01:50           0        5.21      -0.018
  HS02004479           JUNCTION      0.00   355.30     0  01:50           0       0.526       0.138
  HS02004480           JUNCTION      0.00  2073.77     0  01:51           0        4.15       0.050
  HS02004770           JUNCTION    632.56   770.34     0  01:50        1.17        1.39       0.210
  HS02004777           JUNCTION      0.03   775.54     0  01:50    0.000864        1.37       0.375
  HS02004785           JUNCTION      0.15   791.80     0  01:49     0.00432        1.37       0.011
  HS02004788           JUNCTION    222.64   852.09     0  01:55       0.458        1.83       0.021
  HS02004792           JUNCTION    788.48  1626.74     0  01:51        1.59        3.42       0.010
  HS02004799           JUNCTION    137.27  1761.64     0  01:51       0.216        3.63       0.066
  HS02004802           JUNCTION      0.00   326.84     0  02:11           0        1.11       0.363
  HS02004807           JUNCTION    179.09   425.35     0  01:50       0.277        1.17       0.352
  HS02004817           JUNCTION      0.60   426.64     0  01:50      0.0173       0.976       1.711
  HS02004824           JUNCTION    236.20   639.97     0  01:50        0.57        1.11       0.025
  HS02004830           JUNCTION      0.15   662.54     0  01:50     0.00432        0.69       0.183
  HS02004837           JUNCTION    175.65   788.62     0  01:51       0.465       0.841       0.085
  HS02004842           JUNCTION      0.00   750.77     0  01:51           0       0.531       2.532
  HS02004848           JUNCTION    213.80   958.37     0  01:51       0.535       0.921      -0.001
  HS02004852           JUNCTION      0.00   915.52     0  01:52           0        0.79      -0.001
  HS02004856           JUNCTION     70.37   950.93     0  01:52        0.11         0.9       0.157
  HS02004862           JUNCTION    101.27  1045.15     0  01:52       0.233        1.13       0.009
  HS02004870           JUNCTION     96.62  1140.51     0  01:53       0.151        1.28       0.024
  HS02004876           JUNCTION    104.79  1237.55     0  01:53       0.185        1.47       0.061
  HS02004881           JUNCTION     54.29  1207.19     0  01:53       0.082        1.55       0.008
  HS02004901           JUNCTION    151.23   199.74     0  01:52       0.253       0.257       0.687
  WS02001211           JUNCTION      7.35   321.83     0  01:53       0.212        5.45       0.610
  WS02001212           JUNCTION      0.00   313.61     0  01:51           0        5.42       0.291
  WS02001213           JUNCTION      0.00   285.78     0  01:56           0        5.41       0.327
  WS02003059           JUNCTION      0.00   308.52     0  01:50           0        5.41       0.591
  WS02003060           JUNCTION     16.53  1491.82     0  01:57       0.476        11.6       0.128
  WS02003066           JUNCTION      0.00  1237.17     0  01:54           0        5.79       0.027
  WS02003067           JUNCTION      0.00  1233.28     0  01:53           0        5.79       0.078
  WS02003069           JUNCTION      0.32  1460.26     0  01:58     0.00922        11.6       0.136
  WS02003072           JUNCTION      0.00  1452.46     0  01:58           0        11.6       0.182
  WS02003073           JUNCTION      1.82  1449.50     0  01:59      0.0524        11.6       0.189
  WS02004138           JUNCTION      0.00   380.00     0  00:00           0        5.25       0.054
  WS02004139           JUNCTION      0.32   252.41     0  01:52     0.00924        5.26       0.508
  WS02004401           JUNCTION      0.00  1250.18     0  01:50           0         5.9       0.185
  WS02004402           JUNCTION      0.00  1250.66     0  01:50           0        5.89       0.186
  WS02004403           JUNCTION      0.00  1251.52     0  01:50           0        5.88       0.180
  WS02004404           JUNCTION      0.16  1252.99     0  01:50     0.00467        5.87       0.163
  WS02004405           JUNCTION      0.04  1255.47     0  01:50      0.0011        5.86       0.209
  WS02004406           JUNCTION      0.00  1257.73     0  01:50           0        5.85       0.370
  WS02004407           JUNCTION      0.00  1258.09     0  01:50           0        5.83       0.031
  WS02004409           JUNCTION      0.00  1233.20     0  01:53           0        5.83       0.055
  WS02004410           JUNCTION      0.00  1233.09     0  01:53           0        5.82       0.084
  WS02004411           JUNCTION      0.00  1233.73     0  01:52           0        5.82       0.111
  WS02004412           JUNCTION      0.00  1233.21     0  01:53           0        5.81       0.139
  WS02004413           JUNCTION      0.00  1233.25     0  01:53           0        5.81       0.243
  WS02006109           JUNCTION      1.23  1148.39     0  01:47      0.0354        5.73       0.185
  WS02006110           JUNCTION      0.00  1148.78     0  01:47           0        5.72       0.142
  WS02006111           JUNCTION      0.00  1115.66     0  01:56           0        5.71       0.011
  WS02006112           JUNCTION    131.37  1246.69     0  01:50       0.226        5.93       0.320
  WS02006113           JUNCTION      0.00  1149.38     0  01:47           0        5.71       0.044
  WS02006115           JUNCTION      0.00  1247.74     0  01:50           0        5.91       0.126
  WS02006116           JUNCTION      0.00  1248.79     0  01:50           0         5.9       0.072
  WS02006228           JUNCTION      0.00  1147.85     0  01:47           0         5.7       0.089
  WS02006229           JUNCTION      0.00  1966.44     0  01:55           0        6.67       0.153
  WS02006230           JUNCTION     10.28   851.65     0  01:55       0.296        2.48       0.362
  WS02006231           JUNCTION      0.00   453.42     0  01:58           0        1.92      -0.174
  WS02006232           JUNCTION      0.00   453.38     0  01:52           0         1.9       0.377
  WS02006234           JUNCTION      0.00   453.13     0  01:53           0        1.87      -0.642
  WS02006235           JUNCTION      0.00   420.29     0  01:55           0           2       0.664
  WS02006238           JUNCTION      0.00   415.31     0  01:54           0        1.85      -0.139
  WS02006239           JUNCTION      0.00   414.80     0  01:54           0        1.78      -0.125
  WS02006240           JUNCTION      0.00   414.56     0  01:54           0        1.74       0.044
  WS02006242           JUNCTION      0.00   423.42     0  01:45           0        1.72      -0.044
  WS02006243           JUNCTION      0.00   489.96     0  01:46           0        1.52      -0.193
  WS02006245           JUNCTION      0.00   429.45     0  01:46           0        1.52       1.013
  WS02006247           JUNCTION      0.00   500.42     0  01:46           0        1.52      -0.061
  WS02006248           JUNCTION      0.00   607.84     0  01:46           0         1.6      -0.292
  WS02006249           JUNCTION      0.00  1248.85     0  01:55           0        2.77       0.413
  WS02006251           JUNCTION      0.08  1244.64     0  01:55     0.00222         2.8      -0.031
  WS02006252           JUNCTION      0.00   400.00     0  00:00           0        1.15      -1.438
  WS02006253           JUNCTION     18.38  1040.62     0  01:55      0.0257        1.63       0.073
  WS02006256           JUNCTION      0.00   300.00     0  00:00           0       0.497      -4.308
  WS02006280           JUNCTION      0.00  1964.97     0  01:55           0        5.17      -0.005
  WS02006284           JUNCTION      0.10  1963.97     0  01:55     0.00275        5.17       0.034
  WS02006287           JUNCTION      0.00  1961.63     0  01:55           0        5.17       0.020
  WSF200               JUNCTION      0.00  1237.17     0  01:54           0        5.79       0.015
  YS02001580           JUNCTION      0.00   125.93     0  01:51           0      0.0042      -3.388
  YS02001583           JUNCTION      0.00   185.75     0  01:51           0       0.015      -6.384
  YS02001586           JUNCTION    259.51   260.24     0  01:53       0.673       0.685       0.227
  YS02001590           JUNCTION      0.00   260.67     0  01:53           0       0.672      -0.035
  YS02001593           JUNCTION      0.00   260.85     0  01:53           0       0.672       0.004
  YS02001596           JUNCTION      0.00   261.53     0  01:51           0       0.672      -0.016
  YS02001600           JUNCTION      0.00   262.18     0  01:51           0       0.672       0.006
  YS02001601           JUNCTION    484.81   746.92     0  01:51       0.942        1.61       0.051
  YS02001602           JUNCTION      0.00   563.06     0  01:50           0        1.49       0.020
  YS02001605           JUNCTION      0.00   562.46     0  01:50           0        1.49       0.021
  YS02001607           JUNCTION      0.00   561.81     0  01:50           0        1.49       0.120
  YS02001610           JUNCTION      0.00   545.15     0  01:51           0        1.49       0.148
  YS02001613           JUNCTION      0.00   558.29     0  01:51           0        1.48       0.105
  YS02001616           JUNCTION      0.00   570.47     0  01:51           0        1.48       0.030
  YS02001619           JUNCTION    440.66   929.54     0  01:51        1.03        2.51      -0.008
  YS02001622           JUNCTION      0.00   934.64     0  01:51           0        2.51      -0.011
  YS02001625           JUNCTION      0.00   940.46     0  01:51           0        2.51       0.352
  YS02001629           JUNCTION      0.00   941.76     0  01:51           0         2.5       0.022
  YS02001633           JUNCTION    364.77  1269.79     0  01:51       0.701         3.2       0.104
  YS02001641           JUNCTION      0.00  1268.12     0  01:51           0         3.2       0.084
  YS02001644           JUNCTION    314.99  1581.66     0  01:51       0.572        3.77       0.088
  YS02001647           JUNCTION      0.00  1580.59     0  01:51           0        3.76       0.006
  YS02001649           JUNCTION      0.00  1968.91     0  01:53           0        4.29       0.008
  YS02001652           JUNCTION      0.00   419.82     0  01:52           0       0.534      -0.250
  YS02001655           JUNCTION      0.15   314.99     0  01:52     0.00443       0.535       0.203
  YS02001658           JUNCTION      0.00   312.98     0  01:51           0       0.531      -0.008
  YS02001661           JUNCTION      0.00   313.05     0  01:51           0       0.531       0.064
  YS02001664           JUNCTION    313.24   313.24     0  01:51       0.531       0.531      -0.006
  YS02001745           JUNCTION    204.47   204.47     0  01:51       0.315       0.315      -0.002
  YS02001748           JUNCTION      0.04   204.60     0  01:50      0.0013       0.316      -0.005
  YS02001751           JUNCTION      0.01   205.07     0  01:50    0.000317       0.316       0.333
  YS02001754           JUNCTION      0.26   238.80     0  01:57     0.00749       0.323      -0.377
  YS02001757           JUNCTION      0.00  2648.57     0  01:55           0        5.77       0.042
  YS02001759           JUNCTION    292.47   624.72     0  01:55       0.457        1.15      -0.009
  YS02001762           JUNCTION      0.00   386.15     0  01:57           0       0.697       0.022
  YS02001765           JUNCTION      0.00   403.86     0  01:57           0       0.697       0.018
  YS02001767           JUNCTION      0.54   378.29     0  01:55      0.0154       0.698       0.035
  YS02001770           JUNCTION    403.60   403.60     0  01:51       0.683       0.714      -0.003
  YS02001774           JUNCTION      0.00    56.93     0  01:54           0      0.0433       2.763
  YS02001779           JUNCTION      0.01    36.13     0  01:54    0.000144      0.0118       0.046
  YS02001783           JUNCTION      0.00   971.92     0  01:56           0        2.09       0.011
  YS02001784           JUNCTION      1.06   973.20     0  01:56      0.0305        2.12       0.023
  YS02001786           JUNCTION      0.06   973.18     0  01:56     0.00162        2.12       0.029
  YS02001788           JUNCTION      0.07   974.58     0  01:56     0.00204        2.12       0.015
  YS02001790           JUNCTION      0.15   973.88     0  01:56     0.00446        2.13       0.022
  YS02001791           JUNCTION      0.00  1050.80     0  01:55           0        2.13       0.004
  YS02001793           JUNCTION      0.00   990.52     0  01:58           0        2.13       0.010
  YS02001882           JUNCTION      0.00    32.73     0  01:53           0      0.0126       5.365
  YS02001884           JUNCTION      0.00    64.79     0  01:51           0       0.048       5.396
  YS02001887           JUNCTION    329.72   329.72     0  01:50       0.486       0.519       0.860
  YS02001890           JUNCTION      0.00   290.16     0  01:50           0       0.478       1.071
  YS02001895           JUNCTION      0.00   280.35     0  01:53           0       0.473       0.323
  YS02001898           JUNCTION      0.00   276.96     0  01:54           0       0.472       0.074
  YS02001901           JUNCTION      0.00   261.03     0  01:54           0       0.475       0.661
  YS02001904           JUNCTION      0.00   261.07     0  01:54           0        0.48       0.593
  YS02001907           JUNCTION      0.00   676.63     0  01:58           0        1.48       1.222
  YS02001910           JUNCTION      0.00   475.74     0  01:59           0           1       0.707
  YS02001915           JUNCTION    325.53   464.42     0  01:58       0.589           1       0.163
  YS02001918           JUNCTION      0.00   207.84     0  01:58           0       0.415       0.071
  YS02001920           JUNCTION      2.87   197.36     0  01:57      0.0827       0.416       0.254
  YS02001923           JUNCTION      0.04   162.79     0  01:54     0.00109       0.334      -0.026
  YS02001926           JUNCTION      0.05   162.34     0  01:53      0.0015       0.333       0.109
  YS02001929           JUNCTION    162.37   162.37     0  01:53       0.331       0.331      -0.005
  YS02006553           JUNCTION      0.00   677.61     0  01:59           0        1.47       0.809
  YS02006556           JUNCTION      0.00   677.40     0  01:59           0        1.48       0.560
  YS02006558           JUNCTION    400.32   973.53     0  01:56       0.669        2.12       0.165
  YS02006561           JUNCTION      0.00   972.48     0  01:56           0        2.09      -0.001
  YS02163301           JUNCTION      0.00   905.13     0  01:51           0         2.5       0.060
  YS02163601           JUNCTION      0.11  1271.02     0  01:51     0.00317         3.2       0.148
  YS02164001           JUNCTION      0.00  1271.46     0  01:51           0         3.2       0.071
  YSB1154              JUNCTION    173.40   173.40     0  01:51       0.297       0.298       0.476
  YSB1171              JUNCTION      0.00   343.51     0  01:50           0       0.525       1.190
  YSB1174              JUNCTION    153.73   153.73     0  01:50       0.219        0.22       0.554
  YSB6556              JUNCTION      0.00   174.80     0  01:50           0       0.299       0.365
  CC-1                 OUTFALL       0.00   683.00     0  00:00           0         2.9       0.000
  CC-2                 OUTFALL       0.00   683.00     0  00:00           0        2.58       0.000
  JK-1                 OUTFALL       0.00  1000.00     0  00:00           0        1.22       0.000
  JK-2                 OUTFALL       0.00  1000.00     0  00:00           0       0.541       0.000
  WSC                  OUTFALL       0.00  1448.56     0  01:58           0        11.6       0.000
  CC-storage           STORAGE       0.00  2612.50     0  01:55           0           8      -0.261
  JK-storage           STORAGE       0.00   990.92     0  01:58           0        2.28      -0.760
  XR-storage           STORAGE     200.00   200.00     0  00:00        5.76        6.36       0.001
  
  
  **********************
  Node Surcharge Summary
  **********************
  
  Surcharging occurs when water rises above the top of the highest conduit.
  ---------------------------------------------------------------------
                                               Max. Height   Min. Depth
                                   Hours       Above Crown    Below Rim
  Node                 Type      Surcharged         Meters       Meters
  ---------------------------------------------------------------------
  HS02004478           JUNCTION        0.14          0.470        0.470
  HS02004479           JUNCTION        0.26          0.865        0.185
  HS02004480           JUNCTION        0.30          0.908        0.192
  HS02004770           JUNCTION        0.22          0.720        0.000
  HS02004777           JUNCTION        0.23          0.780        0.000
  HS02004785           JUNCTION        0.18          0.790        0.000
  HS02004788           JUNCTION        0.17          0.720        0.000
  HS02004792           JUNCTION        0.27          0.900        0.000
  HS02004799           JUNCTION        0.35          1.060        0.000
  HS02004802           JUNCTION        0.30          0.690        0.520
  HS02004807           JUNCTION        0.28          0.631        0.589
  HS02004817           JUNCTION        0.71          0.986        0.754
  HS02004824           JUNCTION        0.16          0.492        0.818
  HS02004830           JUNCTION        0.14          0.477        0.853
  HS02004837           JUNCTION        0.06          0.378        0.962
  HS02004842           JUNCTION        0.22          0.577        0.943
  HS02004848           JUNCTION        0.02          0.281        1.089
  HS02004852           JUNCTION        0.05          0.747        0.673
  HS02004856           JUNCTION        0.03          0.287        1.013
  HS02004862           JUNCTION        0.08          0.477        0.823
  HS02004870           JUNCTION        0.10          0.494        0.906
  HS02004876           JUNCTION        0.16          0.584        0.976
  HS02004881           JUNCTION        0.14          0.565        0.885
  HS02004901           JUNCTION        0.23          0.720        0.000
  WS02004401           JUNCTION        0.95          1.221        0.439
  WS02004402           JUNCTION        0.96          1.187        0.553
  WS02004403           JUNCTION        0.97          1.098        0.932
  WS02004404           JUNCTION        1.20          1.068        1.712
  WS02004405           JUNCTION        1.16          0.960        1.840
  WS02004406           JUNCTION        1.02          0.632        1.818
  WS02004409           JUNCTION        0.51          0.313        2.047
  WS02004410           JUNCTION        0.48          0.272        2.268
  WS02004411           JUNCTION        0.43          0.618        1.912
  WS02004412           JUNCTION        0.36          0.175        2.135
  WS02004413           JUNCTION        0.76          0.172        2.028
  WS02006109           JUNCTION        1.42          1.820        0.000
  WS02006110           JUNCTION        1.26          1.850        0.000
  WS02006111           JUNCTION        0.69          1.475        0.395
  WS02006112           JUNCTION        1.31          1.680        0.000
  WS02006113           JUNCTION        0.71          1.809        0.121
  WS02006115           JUNCTION        0.89          1.273        0.977
  WS02006116           JUNCTION        0.89          1.207        1.083
  WS02006228           JUNCTION        1.41          2.180        0.020
  WS02006229           JUNCTION        0.47          1.013        0.057
  WS02006230           JUNCTION        1.09          1.570        0.000
  WS02006231           JUNCTION        1.16          1.530        0.000
  WS02006232           JUNCTION        1.26          1.480        0.000
  WS02006234           JUNCTION        1.16          1.240        0.000
  WS02006235           JUNCTION        1.18          1.290        0.000
  WS02006238           JUNCTION        1.20          1.299        0.131
  WS02006239           JUNCTION        1.10          1.290        0.000
  WS02006240           JUNCTION        0.96          1.390        0.000
  WS02006242           JUNCTION        1.08          0.820        0.000
  WS02006243           JUNCTION        0.91          0.770        0.000
  WS02006245           JUNCTION        0.89          0.850        0.000
  WS02006247           JUNCTION        0.89          0.760        0.000
  WS02006248           JUNCTION        0.87          0.380        0.000
  WS02006249           JUNCTION        0.87          0.390        0.000
  WS02006251           JUNCTION        0.83          1.055        0.125
  WS02006252           JUNCTION        0.99          1.100        0.000
  WS02006253           JUNCTION        0.84          1.621        0.859
  WS02006256           JUNCTION        7.05          2.050        0.000
  WS02006280           JUNCTION        0.37          0.658        0.122
  WS02006284           JUNCTION        0.31          0.580        0.220
  WS02006287           JUNCTION        0.23          0.580        0.310
  YS02001580           JUNCTION        0.09          0.450        0.000
  YS02001583           JUNCTION        0.11          0.500        0.000
  YS02001586           JUNCTION        0.27          0.510        0.000
  YS02001590           JUNCTION        0.33          0.742        0.008
  YS02001593           JUNCTION        0.34          0.840        0.000
  YS02001596           JUNCTION        0.42          1.070        0.000
  YS02001600           JUNCTION        0.52          1.190        0.000
  YS02001601           JUNCTION        0.82          1.440        0.000
  YS02001602           JUNCTION        0.71          1.270        0.000
  YS02001605           JUNCTION        0.67          1.174        0.006
  YS02001607           JUNCTION        0.27          0.632        0.048
  YS02001610           JUNCTION        0.29          0.680        0.000
  YS02001613           JUNCTION        0.26          0.662        0.038
  YS02001616           JUNCTION        0.22          0.600        0.010
  YS02001619           JUNCTION        0.21          0.580        0.030
  YS02001622           JUNCTION        0.20          0.557        0.063
  YS02001625           JUNCTION        0.37          0.780        0.000
  YS02001629           JUNCTION        0.11          0.470        0.000
  YS02001633           JUNCTION        0.38          0.824        0.236
  YS02001641           JUNCTION        0.28          0.418        0.682
  YS02001644           JUNCTION        0.24          0.253        0.667
  YS02001783           JUNCTION        0.15          0.122        1.478
  YS02001784           JUNCTION        0.12          0.059        1.431
  YS02001882           JUNCTION        0.03          0.050        0.780
  YS02001884           JUNCTION        0.08          0.085        0.785
  YS02001887           JUNCTION        0.14          0.168        0.782
  YS02001890           JUNCTION        0.16          0.184        0.576
  YS02001901           JUNCTION        0.12          0.122        0.748
  YS02001904           JUNCTION        0.11          0.100        0.750
  YS02001907           JUNCTION        0.33          0.433        0.517
  YS02001910           JUNCTION        0.19          0.241        0.859
  YS02001915           JUNCTION        0.05          0.047        0.953
  YS02006553           JUNCTION        0.34          0.433        0.757
  YS02006556           JUNCTION        0.26          0.342        1.008
  YS02006558           JUNCTION        0.25          0.317        1.083
  YS02163301           JUNCTION        0.36          0.906        0.124
  YS02163601           JUNCTION        0.40          0.694        0.386
  YS02164001           JUNCTION        0.30          0.525        0.575
  YSB1154              JUNCTION        0.44          1.256        0.144
  YSB1171              JUNCTION        0.44          1.100        0.000
  YSB1174              JUNCTION        0.38          1.110        0.140
  YSB6556              JUNCTION        0.34          1.099        0.001
  
  
  *********************
  Node Flooding Summary
  *********************
  
  Flooding refers to all water that overflows a node, whether it ponds or not.
  --------------------------------------------------------------------------
                                                             Total   Maximum
                                 Maximum   Time of Max       Flood    Ponded
                        Hours       Rate    Occurrence      Volume     Depth
  Node                 Flooded       LPS   days hr:min    10^6 ltr    Meters
  --------------------------------------------------------------------------
  HS02004770              0.04    169.93      0  01:50       0.010     0.000
  HS02004777              0.01     58.06      0  01:50       0.000     0.000
  HS02004785              0.01    237.74      0  01:50       0.001     0.000
  HS02004788              0.01    177.27      0  01:50       0.001     0.000
  HS02004792              0.01    147.93      0  01:48       0.000     0.000
  HS02004799              0.01      5.17      0  01:50       0.000     0.000
  HS02004901              0.10    199.04      0  01:52       0.039     0.000
  WS02006109              0.02     24.12      0  01:50       0.001     0.000
  WS02006110              0.01     55.54      0  01:47       0.000     0.000
  WS02006112              0.01     41.35      0  01:47       0.000     0.000
  WS02006230              0.32    398.76      0  01:55       0.258     0.000
  WS02006231              0.01      0.17      0  01:58       0.000     0.000
  WS02006232              0.08      2.32      0  01:48       0.000     0.000
  WS02006234              0.36    159.95      0  01:45       0.074     0.000
  WS02006235              0.01      4.10      0  02:10       0.000     0.000
  WS02006239              0.01    190.56      0  01:45       0.000     0.000
  WS02006240              0.01    151.48      0  01:45       0.000     0.000
  WS02006242              0.46    284.09      0  01:46       0.183     0.000
  WS02006243              0.01    348.97      0  01:46       0.001     0.000
  WS02006245              0.01    305.42      0  01:46       0.000     0.000
  WS02006247              0.01    454.47      0  01:46       0.001     0.000
  WS02006248              0.59    591.69      0  01:46       0.578     0.000
  WS02006249              0.84   1235.81      0  01:55       1.677     0.000
  WS02006252              0.01    245.63      0  00:00       0.001     0.000
  WS02006256              0.45    293.19      0  00:00       0.213     0.000
  YS02001580              0.01     84.33      0  01:51       0.000     0.000
  YS02001583              0.01     31.16      0  01:51       0.000     0.000
  YS02001586              0.01     80.20      0  01:51       0.001     0.000
  YS02001593              0.01     39.67      0  01:49       0.000     0.000
  YS02001596              0.01      7.42      0  01:49       0.000     0.000
  YS02001600              0.01     13.80      0  01:49       0.000     0.000
  YS02001601              0.20    320.11      0  01:51       0.124     0.000
  YS02001602              0.01     22.97      0  01:51       0.000     0.000
  YS02001610              0.01     22.22      0  01:51       0.000     0.000
  YS02001625              0.01     29.46      0  01:51       0.000     0.000
  YS02001629              0.01    129.64      0  01:51       0.001     0.000
  YSB1171                 0.01     37.27      0  01:50       0.000     0.000
  
  
  **********************
  Storage Volume Summary
  **********************
  
  --------------------------------------------------------------------------------------------------
                         Average     Avg  Evap Exfil       Maximum     Max    Time of Max    Maximum
                          Volume    Pcnt  Pcnt  Pcnt        Volume    Pcnt     Occurrence    Outflow
  Storage Unit           1000 m3    Full  Loss  Loss       1000 m3    Full    days hr:min        LPS
  --------------------------------------------------------------------------------------------------
  CC-storage               1.522      24     0     0         2.373      37       0  02:15    1783.53
  JK-storage               0.067      23     0     0         0.212      73       0  01:54    2300.00
  XR-storage               0.941      65     0     0         1.111      77       0  08:00     380.00
  
  
  ***********************
  Outfall Loading Summary
  ***********************
  
  -----------------------------------------------------------
                         Flow       Avg       Max       Total
                         Freq      Flow      Flow      Volume
  Outfall Node           Pcnt       LPS       LPS    10^6 ltr
  -----------------------------------------------------------
  CC-1                  29.19    683.00    683.00       2.897
  CC-2                  24.24    683.00    683.00       2.579
  JK-1                   7.86   1000.00   1000.00       1.216
  JK-2                   3.96   1000.00   1000.00       0.541
  WSC                   99.95    540.73   1448.56      11.591
  -----------------------------------------------------------
  System                33.04   3906.73   1448.56      18.823
  
  
  ********************
  Link Flow Summary
  ********************
  
  -----------------------------------------------------------------------------
                                 Maximum  Time of Max   Maximum    Max/    Max/
                                  |Flow|   Occurrence   |Veloc|    Full    Full
  Link                 Type          LPS  days hr:min     m/sec    Flow   Depth
  -----------------------------------------------------------------------------
  1                    CONDUIT   1448.56     0  01:58      3.66    0.50    0.50
  HS02004478WS02006287 CONDUIT   1961.63     0  01:55      2.66    0.55    1.00
  HS02004479HS02004480 CONDUIT    369.45     0  01:50      0.53    0.36    1.00
  HS02004480HS02004478 CONDUIT   2079.88     0  01:50      2.97    8.76    1.00
  HS02004770HS02004777 CONDUIT    775.51     0  01:50      1.11    1.42    1.00
  HS02004777HS02004785 CONDUIT    791.65     0  01:49      1.24    0.97    1.00
  HS02004785HS02004788 CONDUIT    654.65     0  01:55      1.36    4.94    1.00
  HS02004788HS02004792 CONDUIT    851.30     0  01:55      1.44    0.56    1.00
  HS02004792HS02004799 CONDUIT   1624.76     0  01:51      2.32    0.99    1.00
  HS02004799HS02004480 CONDUIT   1757.86     0  01:51      2.51    2.22    1.00
  HS02004802HS02004478 CONDUIT    342.16     0  02:10      0.67    0.30    1.00
  HS02004807HS02004802 CONDUIT    326.84     0  02:11      0.60    0.62    1.00
  HS02004817HS02004807 CONDUIT    426.04     0  01:50      0.61    0.25    1.00
  HS02004817HS02004824 CONDUIT    425.61     0  01:50      0.61    0.19    1.00
  HS02004824HS02004830 CONDUIT    662.39     0  01:50      0.99    0.87    1.00
  HS02004830HS02004837 CONDUIT    613.17     0  01:51      0.96    0.61    1.00
  HS02004837HS02004842 CONDUIT    750.77     0  01:51      1.07    0.45    1.00
  HS02004842HS02004848 CONDUIT    751.38     0  01:51      1.18    0.44    1.00
  HS02004848HS02004852 CONDUIT    915.52     0  01:52      1.54    1.03    1.00
  HS02004852HS02004856 CONDUIT    884.11     0  01:52      1.41    1.01    1.00
  HS02004856HS02004862 CONDUIT    943.96     0  01:52      1.64    0.94    1.00
  HS02004862HS02004870 CONDUIT   1051.64     0  01:53      1.92    1.14    1.00
  HS02004870HS02004876 CONDUIT   1135.54     0  01:53      1.96    0.75    1.00
  HS02004876HS02004881 CONDUIT   1159.21     0  01:53      2.37   12.33    1.00
  HS02004881HS02006253 CONDUIT   1028.69     0  01:55      2.73    0.20    1.00
  HS02004901HS02004770 CONDUIT    152.06     0  01:50      0.22    0.57    1.00
  WS02001211WS02001212 CONDUIT    284.87     0  01:56      0.54    0.22    0.69
  WS02001212WS02001213 CONDUIT    285.78     0  01:56      1.04    0.44    0.58
  WS02001213WS02003059 CONDUIT    255.72     0  01:55      0.47    0.42    0.89
  WS02003059WS02003060 CONDUIT    269.84     0  01:57      0.66    0.18    0.81
  WS02003060WS02003069 CONDUIT   1459.94     0  01:58      2.08    0.57    0.60
  WS02003066WSF200     CONDUIT   1237.17     0  01:54      3.52    0.21    0.37
  WS02003067WS02003066 CONDUIT   1237.17     0  01:54      1.98    0.40    0.57
  WS02003069WS02003072 CONDUIT   1452.46     0  01:58      1.88    0.70    0.65
  WS02003072WS02003073 CONDUIT   1447.68     0  01:59      2.02    3.13    0.61
  WS02004138WS02004139 CONDUIT    190.76     0  00:29      2.16    0.04    0.42
  WS02004139WS02001211 CONDUIT    314.48     0  01:53      0.54    0.40    0.61
  WS02004401WS02004402 CONDUIT   1250.66     0  01:50      1.59    1.50    1.00
  WS02004402WS02004403 CONDUIT   1251.52     0  01:50      1.59    1.80    1.00
  WS02004403WS02004404 CONDUIT   1252.83     0  01:50      1.60    0.91    1.00
  WS02004404WS02004405 CONDUIT   1255.43     0  01:50      1.60   12.30    1.00
  WS02004405WS02004406 CONDUIT   1257.73     0  01:50      1.60    2.48    1.00
  WS02004406WS02004407 CONDUIT   1258.09     0  01:50      2.01    0.56    0.91
  WS02004407WS02004409 CONDUIT   1233.20     0  01:53      2.08    0.44    0.91
  WS02004409WS02004410 CONDUIT   1233.09     0  01:53      1.57    1.59    1.00
  WS02004410WS02004411 CONDUIT   1233.73     0  01:52      1.57    1.69    1.00
  WS02004411WS02004412 CONDUIT   1233.21     0  01:53      1.57    1.75    1.00
  WS02004412WS02004413 CONDUIT   1233.25     0  01:53      1.57    0.83    1.00
  WS02004413WS02003067 CONDUIT   1233.28     0  01:53      1.93    0.53    0.76
  WS02006109WS02006110 CONDUIT   1148.78     0  01:47      2.29    2.21    1.00
  WS02006110WS02006113 CONDUIT   1149.38     0  01:47      2.29    1.05    1.00
  WS02006111WS02006112 CONDUIT   1115.81     0  01:50      2.22    0.53    1.00
  WS02006112WS02006115 CONDUIT   1247.74     0  01:50      1.59    0.74    1.00
  WS02006113WS02006111 CONDUIT   1115.66     0  01:56      2.71    1.34    1.00
  WS02006115WS02006116 CONDUIT   1248.79     0  01:50      1.59    1.60    1.00
  WS02006116WS02004401 CONDUIT   1250.18     0  01:50      1.59    1.72    1.00
  WS02006228WS02006109 CONDUIT   1147.16     0  01:47      2.28    5.01    1.00
  WS02006229WS02006228 CONDUIT   1147.85     0  01:47      2.28    3.80    1.00
  WS02006230WS02006229 CONDUIT    841.37     0  01:55      2.19   18.72    1.00
  WS02006231WS02006230 CONDUIT    453.42     0  01:58      1.21    6.88    1.00
  WS02006232WS02006231 CONDUIT    453.38     0  01:52      1.18    0.95    1.00
  WS02006234WS02006232 CONDUIT    453.13     0  01:53      1.41    0.92    1.00
  WS02006235WS02006234 CONDUIT    420.29     0  01:55      1.21    4.43    1.00
  WS02006238WS02006235 CONDUIT    415.31     0  01:54      1.45    0.93    1.00
  WS02006239WS02006238 CONDUIT    414.80     0  01:54      1.11    1.33    1.00
  WS02006240WS02006239 CONDUIT    414.56     0  01:54      1.26    1.30    1.00
  WS02006242WS02006240 CONDUIT    414.64     0  01:54      1.14    1.65    1.00
  WS02006243WS02006242 CONDUIT    357.62     0  00:05      1.34    0.76    1.00
  WS02006245WS02006243 CONDUIT    371.62     0  00:05      1.39    1.10    1.00
  WS02006247WS02006245 CONDUIT    383.09     0  00:05      1.37    3.04    1.00
  WS02006248WS02006247 CONDUIT    385.59     0  00:04      1.38    0.84    1.00
  WS02006249WS02006248 CONDUIT    430.65     0  01:46      1.38    2.36    1.00
  WS02006251WS02006249 CONDUIT   1248.85     0  01:55      3.25    3.60    1.00
  WS02006252WS02006251 CONDUIT    405.61     0  02:05     21.30    1.49    1.00
  WS02006253WS02006251 CONDUIT   1042.89     0  01:55      2.71    3.13    1.00
  WS02006256WS02006235 CONDUIT    288.93     0  00:00      4.23    3.06    1.00
  WS02006280WS02006229 CONDUIT   1966.44     0  01:55      4.47    0.42    1.00
  WS02006284WS02006280 CONDUIT   1964.97     0  01:55      3.02    0.82    1.00
  WS02006287WS02006284 CONDUIT   1963.87     0  01:55      2.82    0.91    1.00
  WSF200WS02003060     CONDUIT   1266.04     0  01:50      2.69    0.28    0.49
  YS02001580YS02001583 CONDUIT    125.93     0  01:51      0.77    0.49    1.00
  YS02001583YS02001586 CONDUIT    154.06     0  01:51      0.72    0.23    1.00
  YS02001586YS02001590 CONDUIT    260.67     0  01:53      1.31    0.46    1.00
  YS02001590YS02001593 CONDUIT    260.85     0  01:53      1.04    1.64    1.00
  YS02001593YS02001596 CONDUIT    261.53     0  01:51      1.70    0.41    1.00
  YS02001596YS02001600 CONDUIT    262.18     0  01:51      1.18    0.51    1.00
  YS02001600YS02001601 CONDUIT    262.75     0  01:51      0.93    0.45    1.00
  YS02001601YS02001602 CONDUIT    563.06     0  01:50      1.99    2.03    1.00
  YS02001602YS02001605 CONDUIT    562.46     0  01:50      1.99   11.90    1.00
  YS02001605YS02001607 CONDUIT    561.81     0  01:50      1.99    3.08    1.00
  YS02001607YS02001610 CONDUIT    545.15     0  01:51      0.72    0.52    1.00
  YS02001610YS02001613 CONDUIT    558.29     0  01:51      0.71    0.64    1.00
  YS02001613YS02001616 CONDUIT    570.47     0  01:51      0.73    0.49    1.00
  YS02001616YS02001619 CONDUIT    515.70     0  02:02      0.69    0.90    1.00
  YS02001619YS02001622 CONDUIT    934.64     0  01:51      1.32    1.38    1.00
  YS02001622YS02001625 CONDUIT    940.46     0  01:51      1.20    0.50    1.00
  YS02001625YS02001629 CONDUIT    941.76     0  01:51      1.20    0.45    1.00
  YS02001629YS02163301 CONDUIT    905.13     0  01:51      1.15    1.11    1.00
  YS02001633YS02163601 CONDUIT   1270.91     0  01:51      1.62    1.33    1.00
  YS02001641YS02001644 CONDUIT   1267.19     0  01:51      1.61    4.10    1.00
  YS02001644YS02001647 CONDUIT   1580.59     0  01:51      2.17    0.93    0.91
  YS02001647YS02001649 CONDUIT   1622.66     0  01:52      2.37    0.86    0.86
  YS02001649YS02001757 CONDUIT   1936.74     0  01:53      2.60    1.18    0.91
  YS02001652YS02001649 CONDUIT    425.45     0  01:53      0.81    0.21    0.83
  YS02001655YS02001652 CONDUIT    419.82     0  01:52      1.55    0.20    0.56
  YS02001658YS02001655 CONDUIT    314.84     0  01:52      1.98    0.13    0.36
  YS02001661YS02001658 CONDUIT    312.98     0  01:51      2.14    0.12    0.24
  YS02001664YS02001661 CONDUIT    313.05     0  01:51      1.94    0.10    0.26
  YS02001745YS02001748 CONDUIT    204.56     0  01:50      1.97    0.08    0.19
  YS02001748YS02001751 CONDUIT    205.06     0  01:50      1.65    0.10    0.25
  YS02001751YS02001754 CONDUIT    238.54     0  01:57      1.61    0.11    0.40
  YS02001754YS02001757 CONDUIT    295.75     0  01:55      0.60    0.12    0.75
  YS02001757CaochengTiaoxuchi CONDUIT   2612.50     0  01:55      3.97    1.13    0.80
  YS02001759YS02001757 CONDUIT    619.61     0  01:56      0.99    0.44    0.86
  YS02001762YS02001759 CONDUIT    402.92     0  01:55      0.65    0.46    0.80
  YS02001765YS02001762 CONDUIT    386.15     0  01:57      0.73    0.36    0.78
  YS02001767YS02001765 CONDUIT    403.86     0  01:57      0.85    0.51    0.74
  YS02001770YS02001767 CONDUIT    377.76     0  01:55      0.90    1.50    0.72
  YS02001774YS02001770 CONDUIT     62.22     0  01:57      0.17    0.04    0.75
  YS02001779YS02001774 CONDUIT     50.59     0  02:00      0.11    0.03    0.68
  YS02001783YS02001784 CONDUIT    972.14     0  01:56      1.93    1.34    1.00
  YS02001784YS02001785 CONDUIT    973.12     0  01:56      1.99    2.26    0.93
  YS02001786YS02001788 CONDUIT    974.51     0  01:56      2.35    1.88    0.77
  YS02001788YS02001790 CONDUIT    973.72     0  01:56      2.50    0.72    0.74
  YS02001790YS02001791 CONDUIT   1050.80     0  01:55      3.16    1.14    0.63
  YS02001791YS02001793 CONDUIT    990.52     0  01:58      6.33    0.43    0.36
  YS02001793JiankangQianchi CONDUIT    990.92     0  01:58      2.03    0.08    0.59
  YS02001882YS02001884 CONDUIT     32.73     0  01:53      0.10    0.04    1.00
  YS02001884YS02001887 CONDUIT     64.79     0  01:51      0.10    0.09    1.00
  YS02001887YS02001890 CONDUIT    290.16     0  01:50      0.39    0.50    1.00
  YS02001890YS02001895 CONDUIT    280.35     0  01:53      0.40    0.13    0.99
  YS02001895YS02001898 CONDUIT    276.96     0  01:54      0.43    0.48    0.97
  YS02001898YS02001901 CONDUIT    261.03     0  01:54      0.36    0.17    1.00
  YS02001901YS02001904 CONDUIT    261.07     0  01:54      0.35    0.40    1.00
  YS02001904YS02001907 CONDUIT    260.56     0  01:54      0.33    0.09    1.00
  YS02001907YS02006553 CONDUIT    677.61     0  01:59      0.75    0.80    1.00
  YS02001910YS02001907 CONDUIT    477.55     0  01:59      0.61    0.27    1.00
  YS02001915YS02001910 CONDUIT    475.74     0  01:59      0.61    0.24    1.00
  YS02001918YS02001915 CONDUIT    219.68     0  01:58      0.44    0.12    0.85
  YS02001920YS02001918 CONDUIT    207.84     0  01:58      0.67    0.20    0.72
  YS02001923YS02001920 CONDUIT    194.49     0  01:57      0.82    0.09    0.63
  YS02001926YS02001923 CONDUIT    162.75     0  01:54      0.92    0.23    0.32
  YS02001929YS02001926 CONDUIT    162.28     0  01:53      1.01    0.08    0.27
  YS02006553YS02006556 CONDUIT    677.40     0  01:59      0.86    0.58    1.00
  YS02006556YS02006558 CONDUIT    677.14     0  01:58      0.86    0.53    1.00
  YS02006558YS02006561 CONDUIT    972.48     0  01:56      3.60    2.15    0.92
  YS02006561YS02001783 CONDUIT    971.92     0  01:56      2.23    0.50    0.81
  YS02163301YS02001633 CONDUIT    906.86     0  01:51      1.15    0.85    1.00
  YS02163601YS02164001 CONDUIT   1271.46     0  01:51      1.62    1.13    1.00
  YS02164001YS02001641 CONDUIT   1268.12     0  01:51      1.61    1.73    1.00
  YSB1154YSB6556       CONDUIT    174.80     0  01:50      0.45    0.31    1.00
  YSB1171HS02004479    CONDUIT    355.30     0  01:50      0.71    0.24    1.00
  YSB1174YSB1171       CONDUIT    156.46     0  01:50      0.41    0.24    1.00
  YSB6556YSB1171       CONDUIT    187.05     0  01:50      0.49    0.19    1.00
  CC-R1                PUMP       683.00     0  00:00              1.00
  CC-R2                PUMP       683.00     0  00:00              1.00
  CC-S1                PUMP       200.00     0  00:00              1.00
  CC-S2                PUMP       200.00     0  00:00              1.00
  JK-R1                PUMP      1000.00     0  00:00              1.00
  JK-R2                PUMP      1000.00     0  00:00              1.00
  JK-S                 PUMP       300.00     0  00:00              1.00
  XR-1                 PUMP        95.00     0  00:00              1.00
  XR-2                 PUMP        95.00     0  00:00              1.00
  XR-3                 PUMP        95.00     0  00:00              1.00
  XR-4                 PUMP        95.00     0  00:00              1.00
  
  
  ***************************
  Flow Classification Summary
  ***************************
  
  -------------------------------------------------------------------------------------
                      Adjusted    ---------- Fraction of Time in Flow Class ---------- 
                       /Actual         Up    Down  Sub   Sup   Up    Down  Norm  Inlet 
  Conduit               Length    Dry  Dry   Dry   Crit  Crit  Crit  Crit  Ltd   Ctrl  
  -------------------------------------------------------------------------------------
  1                       1.00   0.00  0.00  0.00  0.00  1.00  0.00  0.00  0.31  0.00
  HS02004478WS02006287    1.00   0.11  0.00  0.00  0.54  0.34  0.00  0.00  0.63  0.00
  HS02004479HS02004480    1.00   0.05  0.00  0.00  0.95  0.00  0.00  0.00  0.12  0.00
  HS02004480HS02004478    1.00   0.10  0.00  0.00  0.47  0.00  0.00  0.43  0.00  0.00
  HS02004770HS02004777    1.00   0.00  0.10  0.00  0.90  0.00  0.00  0.00  0.03  0.00
  HS02004777HS02004785    1.00   0.00  0.00  0.00  1.00  0.00  0.00  0.00  0.13  0.00
  HS02004785HS02004788    1.00   0.00  0.00  0.00  1.00  0.00  0.00  0.00  0.00  0.00
  HS02004788HS02004792    1.00   0.00  0.00  0.00  0.99  0.01  0.00  0.00  0.94  0.00
  HS02004792HS02004799    1.00   0.00  0.00  0.00  0.98  0.02  0.00  0.00  0.92  0.00
  HS02004799HS02004480    1.00   0.00  0.05  0.00  0.89  0.00  0.06  0.00  0.00  0.00
  HS02004802HS02004478    1.00   0.10  0.00  0.00  0.90  0.00  0.00  0.00  0.03  0.00
  HS02004807HS02004802    1.00   0.10  0.00  0.00  0.90  0.00  0.00  0.01  0.00  0.00
  HS02004817HS02004807    1.00   0.00  0.10  0.00  0.90  0.00  0.00  0.00  0.01  0.00
  HS02004817HS02004824    1.00   0.00  0.00  0.00  1.00  0.00  0.00  0.00  0.88  0.00
  HS02004824HS02004830    1.00   0.00  0.00  0.00  1.00  0.00  0.00  0.00  0.01  0.00
  HS02004830HS02004837    1.00   0.00  0.00  0.00  1.00  0.00  0.00  0.00  0.93  0.00
  HS02004837HS02004842    1.00   0.00  0.00  0.00  1.00  0.00  0.00  0.00  0.11  0.00
  HS02004842HS02004848    1.00   0.00  0.10  0.00  0.90  0.00  0.00  0.00  0.61  0.00
  HS02004848HS02004852    1.00   0.10  0.00  0.00  0.90  0.00  0.00  0.00  0.73  0.00
  HS02004852HS02004856    1.00   0.10  0.01  0.00  0.90  0.00  0.00  0.00  0.75  0.00
  HS02004856HS02004862    1.00   0.00  0.12  0.00  0.88  0.00  0.00  0.00  0.77  0.00
  HS02004862HS02004870    1.00   0.00  0.00  0.00  1.00  0.00  0.00  0.00  0.04  0.00
  HS02004870HS02004876    1.00   0.00  0.00  0.00  0.99  0.01  0.00  0.00  0.91  0.00
  HS02004876HS02004881    1.00   0.04  0.00  0.00  0.69  0.27  0.00  0.00  0.00  0.00
  HS02004881HS02006253    1.00   0.03  0.03  0.00  0.29  0.06  0.00  0.59  0.13  0.00
  HS02004901HS02004770    1.00   0.10  0.00  0.00  0.90  0.00  0.00  0.00  0.00  0.00
  WS02001211WS02001212    1.00   0.00  0.04  0.00  0.96  0.00  0.00  0.00  0.00  0.00
  WS02001212WS02001213    1.00   0.04  0.00  0.00  0.40  0.00  0.56  0.00  0.00  0.00
  WS02001213WS02003059    1.00   0.00  0.00  0.00  0.99  0.00  0.00  0.00  0.00  0.00
  WS02003059WS02003060    1.00   0.00  0.00  0.00  1.00  0.00  0.00  0.00  0.03  0.00
  WS02003060WS02003069    1.00   0.00  0.00  0.00  0.99  0.01  0.00  0.00  0.53  0.00
  WS02003066WSF200        1.00   0.07  0.00  0.00  0.00  0.93  0.00  0.00  0.74  0.00
  WS02003067WS02003066    1.00   0.07  0.00  0.00  0.93  0.00  0.00  0.00  0.00  0.00
  WS02003069WS02003072    1.00   0.00  0.00  0.00  1.00  0.00  0.00  0.00  0.75  0.00
  WS02003072WS02003073    1.00   0.00  0.00  0.00  0.00  0.00  0.00  1.00  0.00  0.00
  WS02004138WS02004139    1.00   0.00  0.01  0.00  0.96  0.01  0.00  0.02  0.98  0.00
  WS02004139WS02001211    1.00   0.00  0.00  0.00  0.99  0.00  0.00  0.00  0.00  0.00
  WS02004401WS02004402    1.00   0.04  0.00  0.00  0.96  0.00  0.00  0.00  0.00  0.00
  WS02004402WS02004403    1.00   0.04  0.00  0.00  0.96  0.00  0.00  0.00  0.00  0.00
  WS02004403WS02004404    1.00   0.00  0.05  0.00  0.95  0.00  0.00  0.00  0.00  0.00
  WS02004404WS02004405    1.00   0.00  0.00  0.00  1.00  0.00  0.00  0.00  0.01  0.00
  WS02004405WS02004406    1.00   0.00  0.00  0.00  1.00  0.00  0.00  0.00  0.00  0.00
  WS02004406WS02004407    1.00   0.00  0.05  0.00  0.94  0.00  0.00  0.00  0.00  0.00
  WS02004407WS02004409    1.00   0.06  0.00  0.00  0.94  0.00  0.00  0.00  0.89  0.00
  WS02004409WS02004410    1.00   0.06  0.00  0.00  0.94  0.00  0.00  0.00  0.00  0.00
  WS02004410WS02004411    1.00   0.06  0.00  0.00  0.94  0.00  0.00  0.00  0.00  0.00
  WS02004411WS02004412    1.00   0.06  0.00  0.00  0.94  0.00  0.00  0.00  0.00  0.00
  WS02004412WS02004413    1.00   0.06  0.00  0.00  0.94  0.00  0.00  0.00  0.01  0.00
  WS02004413WS02003067    1.00   0.06  0.01  0.00  0.00  0.00  0.93  0.00  0.00  0.00
  WS02006109WS02006110    1.00   0.00  0.01  0.00  0.97  0.00  0.03  0.00  0.00  0.00
  WS02006110WS02006113    1.00   0.01  0.03  0.00  0.97  0.00  0.00  0.00  0.00  0.00
  WS02006111WS02006112    1.00   0.04  0.00  0.00  0.96  0.00  0.00  0.00  0.84  0.00
  WS02006112WS02006115    1.00   0.04  0.00  0.00  0.96  0.00  0.00  0.00  0.00  0.00
  WS02006113WS02006111    1.00   0.04  0.00  0.00  0.18  0.78  0.00  0.00  0.07  0.00
  WS02006115WS02006116    1.00   0.04  0.00  0.00  0.95  0.00  0.00  0.01  0.00  0.00
  WS02006116WS02004401    1.00   0.04  0.00  0.00  0.96  0.00  0.00  0.00  0.00  0.00
  WS02006228WS02006109    1.00   0.00  0.00  0.00  1.00  0.00  0.00  0.00  0.00  0.00
  WS02006229WS02006228    1.00   0.00  0.00  0.00  0.99  0.00  0.00  0.01  0.00  0.00
  WS02006230WS02006229    1.00   0.00  0.00  0.00  0.97  0.00  0.00  0.03  0.04  0.00
  WS02006231WS02006230    1.00   0.00  0.00  0.00  0.43  0.00  0.56  0.00  0.00  0.00
  WS02006232WS02006231    1.00   0.00  0.00  0.00  0.99  0.00  0.01  0.00  0.00  0.00
  WS02006234WS02006232    1.00   0.00  0.00  0.00  1.00  0.00  0.00  0.00  0.06  0.00
  WS02006235WS02006234    1.00   0.00  0.00  0.00  0.89  0.00  0.11  0.00  0.00  0.00
  WS02006238WS02006235    1.00   0.00  0.00  0.00  1.00  0.00  0.00  0.00  0.00  0.00
  WS02006239WS02006238    1.00   0.00  0.00  0.00  1.00  0.00  0.00  0.00  0.18  0.00
  WS02006240WS02006239    1.00   0.00  0.00  0.00  0.74  0.00  0.00  0.26  0.03  0.00
  WS02006242WS02006240    1.00   0.00  0.00  0.00  0.99  0.00  0.00  0.00  0.00  0.00
  WS02006243WS02006242    1.00   0.00  0.00  0.00  0.99  0.00  0.00  0.00  0.74  0.00
  WS02006245WS02006243    1.00   0.00  0.00  0.00  0.83  0.00  0.00  0.17  0.00  0.00
  WS02006247WS02006245    1.00   0.00  0.00  0.00  0.99  0.00  0.00  0.01  0.00  0.00
  WS02006248WS02006247    1.00   0.00  0.00  0.00  1.00  0.00  0.00  0.00  0.63  0.00
  WS02006249WS02006248    1.00   0.00  0.00  0.00  0.52  0.00  0.48  0.00  0.00  0.00
  WS02006251WS02006249    1.00   0.00  0.00  0.00  1.00  0.00  0.00  0.00  0.67  0.00
  WS02006252WS02006251    1.00   0.01  0.43  0.00  0.17  0.00  0.39  0.00  0.00  0.00
  WS02006253WS02006251    1.00   0.00  0.00  0.00  0.98  0.00  0.02  0.00  0.01  0.00
  WS02006256WS02006235    1.00   0.00  0.00  0.00  0.97  0.02  0.00  0.00  0.00  0.00
  WS02006280WS02006229    1.00   0.10  0.00  0.00  0.13  0.05  0.00  0.72  0.00  0.00
  WS02006284WS02006280    1.00   0.10  0.00  0.00  0.09  0.01  0.00  0.80  0.00  0.00
  WS02006287WS02006284    1.00   0.09  0.03  0.00  0.43  0.46  0.00  0.00  0.67  0.00
  WSF200WS02003060        1.00   0.00  0.07  0.00  0.57  0.35  0.00  0.00  0.71  0.00
  YS02001580YS02001583    1.00   0.20  0.54  0.00  0.26  0.00  0.00  0.00  0.73  0.00
  YS02001583YS02001586    1.00   0.34  0.30  0.00  0.37  0.00  0.00  0.00  0.73  0.00
  YS02001586YS02001590    1.00   0.10  0.00  0.00  0.55  0.04  0.00  0.31  0.32  0.00
  YS02001590YS02001593    1.00   0.10  0.00  0.00  0.09  0.00  0.81  0.00  0.00  0.00
  YS02001593YS02001596    1.00   0.10  0.00  0.00  0.11  0.01  0.00  0.78  0.01  0.00
  YS02001596YS02001600    1.00   0.10  0.00  0.00  0.21  0.05  0.00  0.64  0.05  0.00
  YS02001600YS02001601    1.00   0.10  0.00  0.00  0.90  0.00  0.00  0.00  0.66  0.00
  YS02001601YS02001602    1.00   0.10  0.01  0.00  0.90  0.00  0.00  0.00  0.00  0.00
  YS02001602YS02001605    1.00   0.10  0.00  0.00  0.90  0.00  0.00  0.00  0.00  0.00
  YS02001605YS02001607    1.00   0.10  0.00  0.00  0.90  0.00  0.00  0.00  0.00  0.00
  YS02001607YS02001610    1.00   0.10  0.00  0.00  0.90  0.00  0.00  0.00  0.02  0.00
  YS02001610YS02001613    1.00   0.10  0.00  0.00  0.90  0.00  0.00  0.00  0.01  0.00
  YS02001613YS02001616    1.00   0.10  0.00  0.00  0.90  0.00  0.00  0.00  0.01  0.00
  YS02001616YS02001619    1.00   0.10  0.00  0.00  0.90  0.00  0.00  0.00  0.00  0.00
  YS02001619YS02001622    1.00   0.10  0.00  0.00  0.90  0.00  0.00  0.00  0.37  0.00
  YS02001622YS02001625    1.00   0.10  0.00  0.00  0.90  0.00  0.00  0.00  0.06  0.00
  YS02001625YS02001629    1.00   0.10  0.03  0.00  0.14  0.00  0.73  0.00  0.00  0.00
  YS02001629YS02163301    1.00   0.11  0.01  0.00  0.88  0.00  0.00  0.00  0.00  0.00
  YS02001633YS02163601    1.00   0.00  0.01  0.00  0.99  0.00  0.00  0.00  0.16  0.00
  YS02001641YS02001644    1.00   0.00  0.00  0.00  1.00  0.00  0.00  0.00  0.00  0.00
  YS02001644YS02001647    1.00   0.00  0.13  0.00  0.87  0.00  0.00  0.00  0.00  0.00
  YS02001647YS02001649    1.00   0.00  0.12  0.00  0.42  0.45  0.00  0.00  0.61  0.00
  YS02001649YS02001757    1.00   0.00  0.00  0.00  0.50  0.50  0.00  0.00  0.67  0.00
  YS02001652YS02001649    1.00   0.00  0.00  0.00  0.97  0.03  0.00  0.00  0.82  0.00
  YS02001655YS02001652    1.00   0.00  0.00  0.00  0.15  0.03  0.00  0.82  0.07  0.00
  YS02001658YS02001655    1.00   0.00  0.10  0.00  0.44  0.45  0.00  0.00  0.78  0.00
  YS02001661YS02001658    1.00   0.10  0.00  0.00  0.30  0.60  0.00  0.00  0.78  0.00
  YS02001664YS02001661    1.00   0.10  0.00  0.00  0.74  0.16  0.00  0.00  0.87  0.00
  YS02001745YS02001748    1.00   0.00  0.00  0.00  0.00  0.00  0.00  1.00  0.00  0.00
  YS02001748YS02001751    1.00   0.00  0.00  0.00  0.56  0.44  0.00  0.00  0.85  0.00
  YS02001751YS02001754    1.00   0.00  0.00  0.00  0.09  0.01  0.00  0.90  0.04  0.00
  YS02001754YS02001757    1.00   0.00  0.00  0.00  1.00  0.00  0.00  0.00  0.93  0.00
  YS02001757CaochengTiaoxuchi    1.00   0.00  0.00  0.00  0.90  0.10  0.00  0.00  0.95  0.00
  YS02001759YS02001757    1.00   0.00  0.00  0.00  1.00  0.00  0.00  0.00  0.66  0.00
  YS02001762YS02001759    1.00   0.00  0.00  0.00  1.00  0.00  0.00  0.00  0.05  0.00
  YS02001765YS02001762    1.00   0.00  0.00  0.00  1.00  0.00  0.00  0.00  0.79  0.00
  YS02001767YS02001765    1.00   0.00  0.00  0.00  1.00  0.00  0.00  0.00  0.00  0.00
  YS02001770YS02001767    1.00   0.00  0.00  0.00  1.00  0.00  0.00  0.00  0.00  0.00
  YS02001774YS02001770    1.00   0.00  0.10  0.00  0.73  0.00  0.17  0.00  0.04  0.00
  YS02001779YS02001774    1.00   0.00  0.00  0.00  1.00  0.00  0.00  0.00  0.86  0.00
  YS02001783YS02001784    1.00   0.00  0.13  0.00  0.87  0.00  0.00  0.00  0.59  0.00
  YS02001784YS02001785    1.00   0.00  0.00  0.00  1.00  0.00  0.00  0.00  0.18  0.00
  YS02001786YS02001788    1.00   0.00  0.00  0.00  0.60  0.40  0.00  0.00  0.00  0.00
  YS02001788YS02001790    1.00   0.00  0.00  0.00  0.14  0.86  0.00  0.00  0.89  0.00
  YS02001790YS02001791    1.00   0.00  0.00  0.00  0.02  0.98  0.00  0.00  0.16  0.00
  YS02001791YS02001793    1.00   0.00  0.00  0.00  0.00  1.00  0.00  0.00  0.00  0.00
  YS02001793JiankangQianchi    1.00   0.00  0.00  0.00  1.00  0.00  0.00  0.00  1.00  0.00
  YS02001882YS02001884    1.00   0.11  0.01  0.00  0.88  0.00  0.00  0.00  0.00  0.00
  YS02001884YS02001887    1.00   0.07  0.02  0.00  0.91  0.00  0.00  0.00  0.00  0.00
  YS02001887YS02001890    1.00   0.00  0.00  0.00  0.95  0.00  0.05  0.00  0.00  0.00
  YS02001890YS02001895    1.00   0.00  0.12  0.00  0.88  0.00  0.00  0.00  0.00  0.00
  YS02001895YS02001898    1.00   0.12  0.00  0.00  0.86  0.00  0.02  0.00  0.00  0.00
  YS02001898YS02001901    1.00   0.12  0.00  0.00  0.88  0.00  0.00  0.00  0.01  0.00
  YS02001901YS02001904    1.00   0.12  0.00  0.00  0.88  0.00  0.00  0.00  0.00  0.00
  YS02001904YS02001907    1.00   0.00  0.12  0.00  0.88  0.00  0.00  0.00  0.00  0.00
  YS02001907YS02006553    1.00   0.00  0.04  0.00  0.96  0.00  0.00  0.00  0.00  0.00
  YS02001910YS02001907    1.00   0.00  0.00  0.00  0.95  0.00  0.00  0.04  0.12  0.00
  YS02001915YS02001910    1.00   0.00  0.00  0.00  0.96  0.04  0.00  0.00  0.18  0.00
  YS02001918YS02001915    1.00   0.00  0.00  0.00  0.96  0.04  0.00  0.00  0.81  0.00
  YS02001920YS02001918    1.00   0.00  0.00  0.00  1.00  0.00  0.00  0.00  0.00  0.00
  YS02001923YS02001920    1.00   0.00  0.00  0.00  1.00  0.00  0.00  0.00  0.97  0.00
  YS02001926YS02001923    1.00   0.00  0.07  0.00  0.02  0.00  0.91  0.00  0.00  0.00
  YS02001929YS02001926    1.00   0.00  0.10  0.00  0.90  0.00  0.00  0.00  0.87  0.00
  YS02006553YS02006556    1.00   0.02  0.00  0.00  0.98  0.00  0.00  0.00  0.03  0.00
  YS02006556YS02006558    1.00   0.00  0.00  0.00  1.00  0.00  0.00  0.00  0.00  0.00
  YS02006558YS02006561    1.00   0.13  0.00  0.00  0.00  0.87  0.00  0.00  0.19  0.00
  YS02006561YS02001783    1.00   0.13  0.00  0.00  0.06  0.81  0.00  0.00  0.73  0.00
  YS02163301YS02001633    1.00   0.00  0.11  0.00  0.89  0.00  0.00  0.00  0.00  0.00
  YS02163601YS02164001    1.00   0.00  0.08  0.00  0.92  0.00  0.00  0.00  0.00  0.00
  YS02164001YS02001641    1.00   0.01  0.07  0.00  0.92  0.00  0.00  0.00  0.06  0.00
  YSB1154YSB6556          1.00   0.09  0.00  0.00  0.91  0.00  0.00  0.00  0.02  0.00
  YSB1171HS02004479       1.00   0.05  0.00  0.00  0.94  0.00  0.00  0.01  0.11  0.00
  YSB1174YSB1171          1.00   0.06  0.02  0.00  0.92  0.00  0.00  0.00  0.00  0.00
  YSB6556YSB1171          1.00   0.06  0.04  0.00  0.91  0.00  0.00  0.00  0.00  0.00
  
  
  *************************
  Conduit Surcharge Summary
  *************************
  
  ----------------------------------------------------------------------------
                                                           Hours        Hours 
                         --------- Hours Full --------   Above Full   Capacity
  Conduit                Both Ends  Upstream  Dnstream   Normal Flow   Limited
  ----------------------------------------------------------------------------
  HS02004478WS02006287        0.14      0.14      0.29      0.01         0.01
  HS02004479HS02004480        0.30      0.30      0.31      0.01         0.01
  HS02004480HS02004478        0.24      0.30      0.24      1.25         0.24
  HS02004770HS02004777        0.22      0.22      0.23      0.18         0.12
  HS02004777HS02004785        0.18      0.18      0.23      0.01         0.01
  HS02004785HS02004788        0.17      0.18      0.17      0.89         0.17
  HS02004788HS02004792        0.17      0.17      0.27      0.01         0.01
  HS02004792HS02004799        0.27      0.27      0.35      0.01         0.01
  HS02004799HS02004480        0.30      0.30      0.35      0.42         0.01
  HS02004802HS02004478        0.25      0.25      0.30      0.01         0.01
  HS02004807HS02004802        0.28      0.28      0.30      0.01         0.01
  HS02004817HS02004807        0.28      0.28      0.71      0.01         0.01
  HS02004817HS02004824        0.16      0.16      0.71      0.01         0.01
  HS02004824HS02004830        0.14      0.14      0.16      0.01         0.01
  HS02004830HS02004837        0.06      0.06      0.14      0.01         0.01
  HS02004837HS02004842        0.06      0.06      0.22      0.01         0.01
  HS02004842HS02004848        0.02      0.02      0.22      0.01         0.01
  HS02004848HS02004852        0.02      0.02      0.05      0.01         0.01
  HS02004852HS02004856        0.05      0.05      0.07      0.01         0.01
  HS02004856HS02004862        0.03      0.03      0.08      0.01         0.01
  HS02004862HS02004870        0.08      0.08      0.10      0.02         0.01
  HS02004870HS02004876        0.10      0.10      0.16      0.01         0.01
  HS02004876HS02004881        0.14      0.16      0.14      0.88         0.14
  HS02004881HS02006253        0.14      0.14      0.84      0.01         0.01
  HS02004901HS02004770        0.22      0.22      0.23      0.01         0.01
  WS02003072WS02003073        0.01      0.01      0.01      1.71         0.01
  WS02004401WS02004402        0.95      0.95      0.96      0.85         0.84
  WS02004402WS02004403        0.96      0.96      0.97      0.95         0.93
  WS02004403WS02004404        0.97      0.97      1.20      0.01         0.01
  WS02004404WS02004405        1.16      1.20      1.16      2.33         1.16
  WS02004405WS02004406        1.02      1.16      1.02      1.30         1.02
  WS02004406WS02004407        0.01      0.01      1.02      0.01         0.01
  WS02004407WS02004409        0.01      0.01      0.51      0.01         0.01
  WS02004409WS02004410        0.48      0.51      0.48      0.89         0.48
  WS02004410WS02004411        0.43      0.48      0.43      0.91         0.43
  WS02004411WS02004412        0.36      0.43      0.36      0.94         0.36
  WS02004412WS02004413        0.36      0.36      0.76      0.01         0.01
  WS02004413WS02003067        0.01      0.01      0.76      0.01         0.01
  WS02006109WS02006110        1.26      1.26      1.44      1.26         0.01
  WS02006110WS02006113        0.71      0.71      1.43      0.22         0.01
  WS02006111WS02006112        0.69      0.69      1.59      0.01         0.01
  WS02006112WS02006115        0.89      0.89      1.31      0.01         0.01
  WS02006113WS02006111        0.70      0.71      0.70      0.83         0.70
  WS02006115WS02006116        0.89      0.89      0.89      0.90         0.87
  WS02006116WS02004401        0.94      0.94      0.95      0.93         0.90
  WS02006228WS02006109        1.42      1.44      1.42      1.75         1.41
  WS02006229WS02006228        1.41      1.42      1.41      1.56         1.41
  WS02006230WS02006229        1.46      1.47      1.46      2.71         0.89
  WS02006231WS02006230        1.09      1.09      1.18      1.99         0.51
  WS02006232WS02006231        1.16      1.16      1.26      0.01         0.06
  WS02006234WS02006232        1.19      1.19      1.26      0.01         0.01
  WS02006235WS02006234        1.16      1.16      1.18      1.64         0.49
  WS02006238WS02006235        1.19      1.19      1.22      0.01         0.15
  WS02006239WS02006238        1.16      1.16      1.20      0.44         0.01
  WS02006240WS02006239        1.05      1.05      1.10      0.44         0.01
  WS02006242WS02006240        0.96      0.96      1.12      0.70         0.47
  WS02006243WS02006242        0.92      0.92      1.08      0.01         0.01
  WS02006245WS02006243        0.89      0.90      0.91      0.04         0.01
  WS02006247WS02006245        0.89      0.89      0.89      1.37         0.31
  WS02006248WS02006247        0.87      0.87      0.89      0.01         0.01
  WS02006249WS02006248        0.87      0.87      0.87      0.57         0.01
  WS02006251WS02006249        0.86      0.86      0.87      0.66         0.57
  WS02006252WS02006251        0.94      0.94      0.98      0.20         0.01
  WS02006253WS02006251        0.86      0.86      0.87      0.39         0.01
  WS02006256WS02006235        1.93      1.96      6.99      0.41         0.01
  WS02006280WS02006229        0.38      0.38      0.47      0.01         0.01
  WS02006284WS02006280        0.31      0.31      0.37      0.01         0.01
  WS02006287WS02006284        0.23      0.23      0.32      0.01         0.01
  YS02001580YS02001583        0.09      0.09      0.16      0.01         0.01
  YS02001583YS02001586        0.11      0.11      0.27      0.01         0.01
  YS02001586YS02001590        0.28      0.28      0.33      0.01         0.01
  YS02001590YS02001593        0.34      0.34      0.35      0.36         0.01
  YS02001593YS02001596        0.34      0.34      0.42      0.01         0.01
  YS02001596YS02001600        0.44      0.44      0.52      0.01         0.01
  YS02001600YS02001601        0.57      0.57      0.82      0.01         0.01
  YS02001601YS02001602        0.71      0.71      0.86      0.54         0.01
  YS02001602YS02001605        0.67      0.67      0.71      1.70         0.01
  YS02001605YS02001607        0.63      0.67      0.63      0.77         0.63
  YS02001607YS02001610        0.27      0.27      0.29      0.01         0.01
  YS02001610YS02001613        0.26      0.26      0.29      0.01         0.01
  YS02001613YS02001616        0.22      0.22      0.26      0.01         0.01
  YS02001616YS02001619        0.21      0.21      0.22      0.01         0.01
  YS02001619YS02001622        0.20      0.21      0.20      0.36         0.20
  YS02001622YS02001625        0.20      0.20      0.37      0.01         0.01
  YS02001625YS02001629        0.11      0.11      0.37      0.01         0.01
  YS02001629YS02163301        0.35      0.35      0.36      0.25         0.22
  YS02001633YS02163601        0.38      0.38      0.40      0.28         0.28
  YS02001641YS02001644        0.23      0.28      0.23      0.92         0.23
  YS02001644YS02001647        0.01      0.01      0.23      0.01         0.01
  YS02001649YS02001757        0.01      0.01      0.01      0.13         0.01
  YS02001757CaochengTiaoxuchi        0.01      0.01      0.01      0.13         0.01
  YS02001770YS02001767        0.01      0.01      0.01      0.24         0.01
  YS02001783YS02001784        0.12      0.15      0.12      0.28         0.12
  YS02001784YS02001785        0.01      0.12      0.01      0.44         0.01
  YS02001786YS02001788        0.01      0.01      0.01      0.35         0.01
  YS02001790YS02001791        0.01      0.01      0.01      0.09         0.01
  YS02001793JiankangQianchi        0.01      0.01      6.54      0.01         0.01
  YS02001882YS02001884        0.03      0.03      0.08      0.01         0.01
  YS02001884YS02001887        0.13      0.13      0.14      0.01         0.01
  YS02001887YS02001890        0.16      0.16      0.17      0.01         0.01
  YS02001890YS02001895        0.01      0.01      0.19      0.01         0.01
  YS02001898YS02001901        0.01      0.01      0.12      0.01         0.01
  YS02001901YS02001904        0.11      0.11      0.12      0.01         0.01
  YS02001904YS02001907        0.11      0.11      0.34      0.01         0.01
  YS02001907YS02006553        0.45      0.45      0.49      0.01         0.01
  YS02001910YS02001907        0.19      0.19      0.33      0.01         0.01
  YS02001915YS02001910        0.05      0.05      0.19      0.01         0.01
  YS02001918YS02001915        0.01      0.01      0.05      0.01         0.01
  YS02006553YS02006556        0.26      0.26      0.34      0.01         0.01
  YS02006556YS02006558        0.30      0.30      0.35      0.01         0.01
  YS02006558YS02006561        0.01      0.25      0.01      0.41         0.01
  YS02006561YS02001783        0.01      0.01      0.15      0.01         0.01
  YS02163301YS02001633        0.36      0.36      0.39      0.01         0.01
  YS02163601YS02164001        0.30      0.30      0.40      0.16         0.01
  YS02164001YS02001641        0.28      0.30      0.28      0.44         0.28
  YSB1154YSB6556              0.34      0.34      0.44      0.01         0.01
  YSB1171HS02004479           0.26      0.26      0.44      0.01         0.01
  YSB1174YSB1171              0.38      0.38      0.63      0.01         0.01
  YSB6556YSB1171              0.34      0.34      0.77      0.01         0.01
  
  
  ***************
  Pumping Summary
  ***************
  
  ---------------------------------------------------------------------------------------------------------
                                                  Min       Avg       Max     Total     Power    % Time Off
                        Percent   Number of      Flow      Flow      Flow    Volume     Usage    Pump Curve
  Pump                 Utilized   Start-Ups       LPS       LPS       LPS  10^6 ltr     Kw-hr    Low   High
  ---------------------------------------------------------------------------------------------------------
  CC-R1                   14.80          26      0.00    683.00    683.00     2.910     48.91    0.0  100.0
  CC-R2                   13.18          29      0.00    683.00    683.00     2.593     43.53    0.0  100.0
  CC-S1                   12.94          37      0.00    200.00    200.00     0.745      5.44    0.0    0.0
  CC-S2                    7.12          29      0.00    200.00    200.00     0.410      3.20    0.0    0.0
  JK-R1                    4.23          12      0.00   1000.00   1000.00     1.217     12.18    0.0    0.0
  JK-R2                    1.89          16      0.00   1000.00   1000.00     0.545      3.57    0.0    0.0
  JK-S                     5.67          26      0.00    300.00    300.00     0.490      9.43    0.0    0.0
  XR-1                    97.91           2      0.00     95.00     95.00     2.679      9.61    0.0    0.0
  XR-2                    93.94           2      0.00     95.00     95.00     2.570      8.77    0.0    0.0
  XR-3                     0.00           1      0.00     95.00     95.00     0.000      0.00    0.0    0.0
  XR-4                     0.00           1      0.00     95.00     95.00     0.000      0.00    0.0    0.0
  

  Analysis begun on:  Thu Jun 15 19:59:03 2023
  Analysis ended on:  Thu Jun 15 19:59:13 2023
  Total elapsed time: 00:00:10