
  OWA STORM WATER MANAGEMENT MODEL - VERSION v5.1.14 (OWA 2022-07-31)
  --------------------------------------------------------------

  WARNING 04: minimum elevation drop used for Conduit WS02004404WS02004405
  WARNING 03: negative offset ignored for Link YS02001904YS02001907
  
  *********************************************************
  NOTE: The summary statistics displayed in this report are
  based on results found at every computational time step,  
  not just on results from each reporting time step.
  *********************************************************
  
  ****************
  Analysis Options
  ****************
  Flow Units ............... LPS
  Process Models:
    Rainfall/Runoff ........ YES
    RDII ................... NO
    Snowmelt ............... NO
    Groundwater ............ NO
    Flow Routing ........... YES
    Ponding Allowed ........ NO
    Water Quality .......... NO
  Infiltration Method ...... HORTON
  Flow Routing Method ...... DYNWAVE
  Surcharge Method ......... EXTRAN
  Starting Date ............ 08/28/2015 08:00:00
  Ending Date .............. 08/28/2015 16:00:00
  Antecedent Dry Days ...... 8.0
  Report Time Step ......... 00:01:00
  Wet Time Step ............ 00:01:00
  Dry Time Step ............ 00:01:00
  Routing Time Step ........ 30.00 sec
  Variable Time Step ....... YES
  Maximum Trials ........... 8
  Number of Threads ........ 2
  Head Tolerance ........... 0.001500 m
  
  
  **************************        Volume         Depth
  Runoff Quantity Continuity     hectare-m            mm
  **************************     ---------       -------
  Initial LID Storage ......         0.072         1.184
  Total Precipitation ......         3.611        59.602
  Evaporation Loss .........         0.000         0.000
  Infiltration Loss ........         0.208         3.429
  Surface Runoff ...........         2.747        45.353
  Final Storage ............         0.729        12.027
  Continuity Error (%) .....        -0.036
  
  
  **************************        Volume        Volume
  Flow Routing Continuity        hectare-m      10^6 ltr
  **************************     ---------     ---------
  Dry Weather Inflow .......         0.630         6.296
  Wet Weather Inflow .......         2.747        27.473
  Groundwater Inflow .......         0.000         0.000
  RDII Inflow ..............         0.000         0.000
  External Inflow ..........         0.105         1.045
  External Outflow .........         2.352        23.516
  Flooding Loss ............         1.121        11.208
  Evaporation Loss .........         0.000         0.000
  Exfiltration Loss ........         0.000         0.000
  Initial Stored Volume ....         0.303         3.031
  Final Stored Volume ......         0.321         3.208
  Continuity Error (%) .....        -0.229
  
  
  *************************
  Highest Continuity Errors
  *************************
  Node YS02001884 (4.91%)
  Node YS02001583 (-4.73%)
  Node YS02001774 (1.93%)
  Node HS02004842 (1.81%)
  Node WS02006256 (-1.60%)
  
  
  ***************************
  Time-Step Critical Elements
  ***************************
  Link WS02006280WS02006229 (44.79%)
  Link WS02006252WS02006251 (29.17%)
  Link YS02001791YS02001793 (5.33%)
  Link WS02006238WS02006235 (5.30%)
  Link WS02003066WSF200 (2.88%)
  
  
  ********************************
  Highest Flow Instability Indexes
  ********************************
  Link WS02006113WS02006111 (26)
  Link WS02004404WS02004405 (20)
  Link WS02006256WS02006235 (19)
  Link WS02006229WS02006228 (18)
  Link WS02006238WS02006235 (17)
  
  
  *************************
  Routing Time Step Summary
  *************************
  Minimum Time Step           :     0.01 sec
  Average Time Step           :     2.18 sec
  Maximum Time Step           :     6.46 sec
  Percent in Steady State     :    -0.00
  Average Iterations per Step :     3.26
  Percent Not Converging      :    12.38
  
  
  ***************************
  Subcatchment Runoff Summary
  ***************************
  
  ------------------------------------------------------------------------------------------------------------------------------
                            Total      Total      Total      Total     Imperv       Perv      Total       Total     Peak  Runoff
                           Precip      Runon       Evap      Infil     Runoff     Runoff     Runoff      Runoff   Runoff   Coeff
  Subcatchment                 mm         mm         mm         mm         mm         mm         mm    10^6 ltr      LPS
  ------------------------------------------------------------------------------------------------------------------------------
  sub0                      59.60       0.00       0.00       1.00      54.18       3.17      57.35        0.05    31.42   0.962
  sub1                      59.60       0.00       0.00       1.53      46.43       4.35      50.78        0.34   202.30   0.852
  sub2                      59.60       0.00       0.00       7.02      33.94      13.40      47.34        0.44   224.31   0.794
  sub3                      59.60       0.00       0.00       7.51      33.61      12.73      46.33        1.04   487.16   0.777
  sub4                      59.60       0.00       0.00       1.68      45.72       4.12      49.84        1.04   515.59   0.836
  sub5                      59.60       0.00       0.00       0.86      44.92       2.60      47.51        0.54   325.89   0.797
  sub7                      59.60       0.00       0.00       1.02      41.05       3.13      44.18        0.15    97.35   0.741
  sub8                      59.60       0.00       0.00       1.00      39.89       3.04      42.93        0.27   175.94   0.720
  sub9                      59.60       0.00       0.00       0.97      38.67       2.94      41.62        0.20   128.23   0.698
  sub10                     59.60       0.00       0.00       0.97      43.51       2.91      46.42        0.51   315.47   0.779
  sub11                     59.60       0.00       0.00       0.88      40.44       2.72      43.16        0.50   323.56   0.724
  sub12                     59.60       0.00       0.00       1.55      41.11       4.74      45.85        0.40   270.98   0.769
  sub14                     59.60       0.00       0.00       0.96      38.30       2.92      41.21        0.39   250.61   0.691
  sub15                     59.60       0.00       0.00       4.43      34.43      10.67      45.11        0.78   461.42   0.757
  sub16                     59.60       0.00       0.00       4.69      33.58      12.24      45.83        0.48   308.63   0.769
  sub17                     59.60       0.00       0.00       5.03      37.07      12.83      49.89        0.43   269.44   0.837
  sub22                     59.60       0.00       0.00       7.88      32.14      16.94      49.09        3.10  1742.12   0.824
  sub23                     59.60       0.00       0.00       5.91      33.10      13.99      47.08        2.25  1347.50   0.790
  sub60                     59.60       0.00       0.00       1.38      39.55       4.14      43.69        0.57   373.92   0.733
  sub61                     59.60       0.00       0.00       2.13      39.52       6.15      45.67        0.84   547.32   0.766
  sub62                     59.60       0.00       0.00       0.94      42.13       2.81      44.94        1.23   754.76   0.754
  sub63                     59.60       0.00       0.00       3.93      33.85      10.22      44.07        1.00   632.69   0.739
  sub64                     59.60       0.00       0.00       1.88      38.54       5.08      43.62        1.05   621.92   0.732
  sub65                     59.60       0.00       0.00       1.73      41.59       4.64      46.23        1.27   728.49   0.776
  sub66                     59.60       0.00       0.00       4.62      32.72       9.08      41.81        1.95   979.72   0.701
  sub67                     59.60       0.00       0.00       0.93      43.19       2.91      46.10        0.86   572.98   0.774
  sub68                     59.60       0.00       0.00       1.64      38.14       4.72      42.87        1.18   749.99   0.719
  sub69                     59.60       0.00       0.00       1.51      40.07       5.57      45.64        1.69   941.13   0.766
  sub70                     59.60       0.00       0.00       5.11      32.10      11.48      43.57        1.26   568.40   0.731
  sub71                     59.60       0.00       0.00       0.87      38.27       2.54      40.81        1.07   626.40   0.685
  sub72                     59.60       0.00       0.00       0.83      41.33       2.36      43.69        0.60   326.29   0.733
  

  ***********************
  LID Performance Summary
  ***********************

  --------------------------------------------------------------------------------------------------------------------
                                         Total      Evap     Infil   Surface    Drain    Initial     Final  Continuity
                                        Inflow      Loss      Loss   Outflow   Outflow   Storage   Storage       Error
  Subcatchment      LID Control             mm        mm        mm        mm        mm        mm        mm           %
  --------------------------------------------------------------------------------------------------------------------
  sub1              GreenRoof            59.60      0.00      0.00      0.00      0.00      7.05     66.73       -0.11
  sub2              GreenRoof            59.60      0.00      0.00      0.00      0.00      7.05     66.73       -0.11
  sub3              GreenRoof            59.60      0.00      0.00      0.00      0.00      7.05     66.73       -0.11
  sub4              GreenRoof            59.60      0.00      0.00      0.00      0.00      7.05     66.73       -0.11
  sub5              GreenRoof            59.60      0.00      0.00      0.00      0.00      7.05     66.73       -0.11
  sub7              GreenRoof            59.60      0.00      0.00      0.00      0.00      7.05     66.73       -0.11
  sub8              GreenRoof            59.60      0.00      0.00      0.00      0.00      7.05     66.73       -0.11
  sub9              GreenRoof            59.60      0.00      0.00      0.00      0.00      7.05     66.73       -0.11
  sub10             GreenRoof            59.60      0.00      0.00      0.00      0.00      7.05     66.73       -0.11
  sub11             GreenRoof            59.60      0.00      0.00      0.00      0.00      7.05     66.73       -0.11
  sub12             GreenRoof            59.60      0.00      0.00      0.00      0.00      7.05     66.73       -0.11
  sub14             GreenRoof            59.60      0.00      0.00      0.00      0.00      7.05     66.73       -0.11
  sub15             GreenRoof            59.60      0.00      0.00      0.00      0.00      7.05     66.73       -0.11
  sub16             GreenRoof            59.60      0.00      0.00      0.00      0.00      7.05     66.73       -0.11
  sub17             GreenRoof            59.60      0.00      0.00      0.00      0.00      7.05     66.73       -0.11
  sub22             GreenRoof            59.60      0.00      0.00      0.00      0.00      7.05     66.73       -0.11
  sub23             GreenRoof            59.60      0.00      0.00      0.00      0.00      7.05     66.73       -0.11
  sub60             GreenRoof            59.60      0.00      0.00      0.00      0.00      7.05     66.73       -0.11
  sub61             GreenRoof            59.60      0.00      0.00      0.00      0.00      7.05     66.73       -0.11
  sub62             GreenRoof            59.60      0.00      0.00      0.00      0.00      7.05     66.73       -0.11
  sub63             GreenRoof            59.60      0.00      0.00      0.00      0.00      7.05     66.73       -0.11
  sub64             GreenRoof            59.60      0.00      0.00      0.00      0.00      7.05     66.73       -0.11
  sub65             GreenRoof            59.60      0.00      0.00      0.00      0.00      7.05     66.73       -0.11
  sub66             GreenRoof            59.60      0.00      0.00      0.00      0.00      7.05     66.73       -0.11
  sub67             GreenRoof            59.60      0.00      0.00      0.00      0.00      7.05     66.73       -0.11
  sub68             GreenRoof            59.60      0.00      0.00      0.00      0.00      7.05     66.73       -0.11
  sub69             GreenRoof            59.60      0.00      0.00      0.00      0.00      7.05     66.73       -0.11
  sub70             GreenRoof            59.60      0.00      0.00      0.00      0.00      7.05     66.73       -0.11
  sub71             GreenRoof            59.60      0.00      0.00      0.00      0.00      7.05     66.73       -0.11
  sub72             GreenRoof            59.60      0.00      0.00      0.00      0.00      7.05     66.73       -0.11
  
  ******************
  Node Depth Summary
  ******************
  
  ---------------------------------------------------------------------------------
                                 Average  Maximum  Maximum  Time of Max    Reported
                                   Depth    Depth      HGL   Occurrence   Max Depth
  Node                 Type       Meters   Meters   Meters  days hr:min      Meters
  ---------------------------------------------------------------------------------
  HS02004478           JUNCTION     0.20     1.57    10.79     0  02:19        1.55
  HS02004479           JUNCTION     0.28     1.70    10.90     0  02:19        1.66
  HS02004480           JUNCTION     0.25     1.67    10.91     0  02:19        1.63
  HS02004770           JUNCTION     0.25     1.42    11.25     0  02:15        1.42
  HS02004777           JUNCTION     0.27     1.48    11.28     0  02:15        1.45
  HS02004785           JUNCTION     0.17     1.47    11.37     0  02:15        1.34
  HS02004788           JUNCTION     0.14     1.42    11.32     0  02:15        1.35
  HS02004792           JUNCTION     0.19     1.60    11.12     0  02:17        1.60
  HS02004799           JUNCTION     0.31     1.76    10.97     0  02:19        1.76
  HS02004802           JUNCTION     0.29     1.75    10.88     0  02:19        1.74
  HS02004807           JUNCTION     0.27     1.90    11.07     0  02:19        1.83
  HS02004817           JUNCTION     0.55     2.39    11.24     0  02:19        2.21
  HS02004824           JUNCTION     0.14     1.97    11.37     0  02:19        1.72
  HS02004830           JUNCTION     0.15     2.00    11.47     0  02:19        1.66
  HS02004837           JUNCTION     0.12     1.96    11.54     0  02:19        1.56
  HS02004842           JUNCTION     0.39     2.22    11.49     0  02:19        1.86
  HS02004848           JUNCTION     0.10     1.93    11.53     0  02:19        1.54
  HS02004852           JUNCTION     0.10     1.93    11.44     0  02:19        1.59
  HS02004856           JUNCTION     0.16     1.92    11.35     0  02:19        1.64
  HS02004862           JUNCTION     0.12     1.86    11.25     0  02:19        1.62
  HS02004870           JUNCTION     0.11     1.81    11.10     0  02:19        1.61
  HS02004876           JUNCTION     0.16     1.86    10.89     0  02:19        1.72
  HS02004881           JUNCTION     0.10     1.61    10.64     0  02:19        1.51
  HS02004901           JUNCTION     0.26     1.42    11.24     0  02:15        1.42
  WS02001211           JUNCTION     0.61     0.81     5.65     0  02:28        0.81
  WS02001212           JUNCTION     0.36     0.57     5.63     0  02:27        0.57
  WS02001213           JUNCTION     0.56     0.87     5.63     0  02:27        0.87
  WS02003059           JUNCTION     0.62     0.94     5.62     0  02:26        0.94
  WS02003060           JUNCTION     0.36     0.68     5.62     0  02:26        0.68
  WS02003066           JUNCTION     0.21     0.45     6.01     0  02:25        0.45
  WS02003067           JUNCTION     0.51     0.89     6.21     0  02:24        0.89
  WS02003069           JUNCTION     0.40     0.77     5.36     0  02:27        0.77
  WS02003072           JUNCTION     0.46     0.81     5.18     0  02:27        0.81
  WS02003073           JUNCTION     0.27     0.51     4.58     0  02:28        0.51
  WS02004138           JUNCTION     0.13     0.14     7.39     0  00:32        0.14
  WS02004139           JUNCTION     0.55     0.74     5.65     0  02:28        0.74
  WS02004401           JUNCTION     0.72     1.84     7.84     0  02:24        1.82
  WS02004402           JUNCTION     0.74     1.78     7.74     0  02:25        1.78
  WS02004403           JUNCTION     0.74     1.71     7.64     0  02:25        1.70
  WS02004404           JUNCTION     0.80     1.72     7.57     0  02:25        1.71
  WS02004405           JUNCTION     0.79     1.67     7.52     0  02:25        1.66
  WS02004406           JUNCTION     0.78     1.56     7.39     0  02:24        1.55
  WS02004407           JUNCTION     0.24     0.91     7.23     0  02:25        0.91
  WS02004409           JUNCTION     0.50     1.38     7.15     0  02:25        1.37
  WS02004410           JUNCTION     0.50     1.29     7.01     0  02:25        1.28
  WS02004411           JUNCTION     0.51     1.20     6.88     0  02:25        1.19
  WS02004412           JUNCTION     0.51     1.10     6.74     0  02:25        1.10
  WS02004413           JUNCTION     0.63     1.14     6.61     0  02:25        1.14
  WS02006109           JUNCTION     0.94     2.64     9.26     0  02:15        2.64
  WS02006110           JUNCTION     0.89     2.38     8.97     0  02:24        2.38
  WS02006111           JUNCTION     0.40     1.73     8.43     0  02:24        1.73
  WS02006112           JUNCTION     0.94     2.36     8.24     0  02:24        2.36
  WS02006113           JUNCTION     0.47     1.81     8.70     0  02:24        1.81
  WS02006115           JUNCTION     0.65     1.93     8.07     0  02:24        1.93
  WS02006116           JUNCTION     0.72     1.92     7.96     0  02:25        1.92
  WS02006228           JUNCTION     0.99     3.03     9.68     0  02:19        3.02
  WS02006229           JUNCTION     1.00     3.23     9.92     0  02:19        3.21
  WS02006230           JUNCTION     0.93     2.65     9.39     0  02:11        2.65
  WS02006231           JUNCTION     0.67     2.21     9.34     0  02:40        2.21
  WS02006232           JUNCTION     0.76     2.18     9.22     0  02:11        2.18
  WS02006234           JUNCTION     0.64     1.96     9.12     0  02:05        1.96
  WS02006235           JUNCTION     0.66     2.00     9.16     0  02:50        1.97
  WS02006238           JUNCTION     0.68     2.03     9.17     0  02:50        1.95
  WS02006239           JUNCTION     0.62     1.87     9.08     0  02:50        1.78
  WS02006240           JUNCTION     0.57     1.68     8.97     0  02:50        1.63
  WS02006242           JUNCTION     0.60     1.55     8.82     0  02:05        1.55
  WS02006243           JUNCTION     0.49     1.38     8.80     0  02:12        1.38
  WS02006245           JUNCTION     0.48     1.28     8.76     0  03:05        1.27
  WS02006247           JUNCTION     0.48     1.26     8.76     0  02:39        1.26
  WS02006248           JUNCTION     0.43     1.10     8.69     0  01:55        1.10
  WS02006249           JUNCTION     0.45     1.09     8.69     0  01:55        1.09
  WS02006251           JUNCTION     0.53     2.13     9.80     0  02:19        2.10
  WS02006252           JUNCTION     0.36     1.50     9.74     0  00:00        1.50
  WS02006253           JUNCTION     0.59     2.86    10.50     0  02:19        2.80
  WS02006256           JUNCTION     1.00     2.35     9.28     0  00:00        2.35
  WS02006280           JUNCTION     0.27     1.75    10.02     0  02:19        1.71
  WS02006284           JUNCTION     0.52     1.94    10.34     0  02:19        1.92
  WS02006287           JUNCTION     0.27     1.73    10.68     0  02:19        1.72
  WSF200               JUNCTION     0.21     0.52     5.75     0  02:25        0.52
  YS02001580           JUNCTION     0.06     1.05     9.59     0  02:15        0.77
  YS02001583           JUNCTION     0.09     1.02     9.52     0  02:15        0.82
  YS02001586           JUNCTION     0.16     1.13     9.30     0  02:15        1.13
  YS02001590           JUNCTION     0.25     1.40     9.26     0  02:15        1.37
  YS02001593           JUNCTION     0.18     1.34     9.20     0  02:15        1.28
  YS02001596           JUNCTION     0.25     1.68     9.10     0  02:15        1.65
  YS02001600           JUNCTION     0.31     1.87     9.00     0  02:15        1.86
  YS02001601           JUNCTION     0.49     2.06     8.90     0  02:14        2.06
  YS02001602           JUNCTION     0.41     1.87     8.77     0  02:18        1.87
  YS02001605           JUNCTION     0.38     1.77     8.68     0  02:21        1.77
  YS02001607           JUNCTION     0.38     1.65     8.49     0  02:28        1.65
  YS02001610           JUNCTION     0.41     1.68     8.48     0  02:19        1.68
  YS02001613           JUNCTION     0.38     1.65     8.49     0  02:22        1.65
  YS02001616           JUNCTION     0.31     1.60     8.51     0  02:24        1.60
  YS02001619           JUNCTION     0.29     1.59     8.52     0  02:24        1.59
  YS02001622           JUNCTION     0.28     1.56     8.47     0  02:24        1.56
  YS02001625           JUNCTION     0.52     1.78     8.38     0  02:20        1.78
  YS02001629           JUNCTION     0.39     1.85     8.40     0  02:22        1.85
  YS02001633           JUNCTION     0.46     2.02     8.48     0  02:24        2.02
  YS02001641           JUNCTION     0.44     1.95     8.39     0  02:23        1.94
  YS02001644           JUNCTION     0.44     1.92     8.35     0  02:23        1.92
  YS02001647           JUNCTION     0.23     1.71     8.32     0  02:24        1.69
  YS02001649           JUNCTION     0.27     1.89     8.28     0  02:24        1.86
  YS02001652           JUNCTION     0.16     1.70     8.30     0  02:24        1.68
  YS02001655           JUNCTION     0.12     1.51     8.36     0  02:22        1.45
  YS02001658           JUNCTION     0.08     1.20     8.34     0  02:24        1.18
  YS02001661           JUNCTION     0.12     0.96     8.36     0  02:24        0.93
  YS02001664           JUNCTION     0.05     0.36     8.28     0  02:24        0.30
  YS02001745           JUNCTION     0.05     0.68     8.20     0  02:24        0.61
  YS02001748           JUNCTION     0.07     1.36     8.44     0  02:24        1.09
  YS02001751           JUNCTION     0.09     1.49     8.37     0  02:22        1.26
  YS02001754           JUNCTION     0.13     1.62     8.23     0  02:24        1.52
  YS02001757           JUNCTION     0.27     1.91     8.17     0  02:24        1.86
  YS02001759           JUNCTION     0.22     1.88     8.24     0  02:24        1.86
  YS02001762           JUNCTION     0.21     1.88     8.28     0  02:24        1.87
  YS02001765           JUNCTION     0.19     1.86     8.31     0  02:25        1.86
  YS02001767           JUNCTION     0.19     1.86     8.35     0  02:25        1.86
  YS02001770           JUNCTION     0.21     1.92     8.41     0  02:25        1.92
  YS02001774           JUNCTION     0.26     1.98     8.40     0  02:25        1.98
  YS02001779           JUNCTION     0.11     1.68     8.37     0  02:21        1.68
  YS02001783           JUNCTION     0.21     1.33     7.47     0  02:21        1.21
  YS02001784           JUNCTION     0.22     1.15     7.22     0  02:21        1.11
  YS02001786           JUNCTION     0.19     0.90     6.93     0  02:21        0.87
  YS02001788           JUNCTION     0.14     0.62     6.60     0  02:26        0.62
  YS02001790           JUNCTION     0.16     0.72     6.37     0  02:23        0.72
  YS02001791           JUNCTION     0.11     0.44     5.91     0  02:23        0.42
  YS02001793           JUNCTION     0.05     0.23     5.06     0  02:21        0.21
  YS02001882           JUNCTION     0.26     1.67     8.39     0  02:21        1.63
  YS02001884           JUNCTION     0.34     1.76     8.38     0  02:21        1.73
  YS02001887           JUNCTION     0.41     1.82     8.36     0  02:21        1.81
  YS02001890           JUNCTION     0.44     1.81     8.32     0  02:21        1.81
  YS02001895           JUNCTION     0.23     1.57     8.31     0  02:22        1.56
  YS02001898           JUNCTION     0.24     1.57     8.30     0  02:21        1.56
  YS02001901           JUNCTION     0.34     1.68     8.29     0  02:24        1.68
  YS02001904           JUNCTION     0.32     1.64     8.27     0  02:21        1.64
  YS02001907           JUNCTION     0.61     1.96     8.25     0  02:21        1.96
  YS02001910           JUNCTION     0.43     1.98     8.48     0  02:21        1.95
  YS02001915           JUNCTION     0.26     1.93     8.65     0  02:21        1.90
  YS02001918           JUNCTION     0.12     1.81     8.88     0  02:21        1.81
  YS02001920           JUNCTION     0.20     2.11     9.12     0  02:21        1.84
  YS02001923           JUNCTION     0.09     2.02     9.28     0  02:21        1.57
  YS02001926           JUNCTION     0.13     1.90     9.35     0  02:21        1.38
  YS02001929           JUNCTION     0.07     1.78     9.47     0  02:21        1.16
  YS02006553           JUNCTION     0.61     1.97     8.26     0  02:24        1.97
  YS02006556           JUNCTION     0.59     1.95     8.26     0  02:21        1.94
  YS02006558           JUNCTION     0.63     1.99     8.26     0  02:21        1.98
  YS02006561           JUNCTION     0.12     1.05     7.71     0  02:21        0.88
  YS02163301           JUNCTION     0.41     1.92     8.43     0  02:24        1.92
  YS02163601           JUNCTION     0.50     2.04     8.44     0  02:24        2.04
  YS02164001           JUNCTION     0.43     1.95     8.41     0  02:24        1.95
  YSB1154              JUNCTION     0.40     1.90    10.95     0  02:24        1.90
  YSB1171              JUNCTION     0.53     1.95    10.85     0  02:19        1.95
  YSB1174              JUNCTION     0.36     1.79    10.90     0  02:24        1.79
  YSB6556              JUNCTION     0.31     1.74    10.91     0  02:19        1.73
  CC-1                 OUTFALL      0.00     0.00     0.00     0  00:00        0.00
  CC-2                 OUTFALL      0.00     0.00     0.00     0  00:00        0.00
  JK-1                 OUTFALL      0.00     0.00     0.00     0  00:00        0.00
  JK-2                 OUTFALL      0.00     0.00     0.00     0  00:00        0.00
  WSC                  OUTFALL      0.27     0.51     1.18     0  02:28        0.51
  CC-storage           STORAGE      0.66     1.40     6.90     0  02:53        1.40
  JK-storage           STORAGE      1.31     3.74     4.54     0  02:45        3.74
  XR-storage           STORAGE      7.72     9.26     7.26     0  08:00        9.26
  
  
  *******************
  Node Inflow Summary
  *******************
  
  -------------------------------------------------------------------------------------------------
                                  Maximum  Maximum                  Lateral       Total        Flow
                                  Lateral    Total  Time of Max      Inflow      Inflow     Balance
                                   Inflow   Inflow   Occurrence      Volume      Volume       Error
  Node                 Type           LPS      LPS  days hr:min    10^6 ltr    10^6 ltr     Percent
  -------------------------------------------------------------------------------------------------
  HS02004478           JUNCTION      0.00  2282.99     0  02:25           0        7.89      -0.009
  HS02004479           JUNCTION      0.00   386.49     0  02:20           0       0.734       0.113
  HS02004480           JUNCTION      0.00  2057.79     0  02:18           0        6.06       0.040
  HS02004770           JUNCTION   1347.50  1347.50     0  02:25        2.25        2.47       0.126
  HS02004777           JUNCTION      0.03   703.52     0  02:15    0.000864        1.81       0.279
  HS02004785           JUNCTION      0.15   711.91     0  02:15     0.00432        1.81       0.031
  HS02004788           JUNCTION    463.09   835.70     0  02:15       0.824        2.63       0.009
  HS02004792           JUNCTION   1742.40  2506.82     0  02:25        3.11        5.74       0.006
  HS02004799           JUNCTION    250.61  1746.76     0  02:16       0.392        5.37       0.053
  HS02004802           JUNCTION      0.00  1029.96     0  02:25           0        1.88       0.209
  HS02004807           JUNCTION    323.56  1028.76     0  02:25       0.501        1.92       0.223
  HS02004817           JUNCTION      0.60   711.38     0  02:25      0.0173        1.47       1.120
  HS02004824           JUNCTION    515.64   710.12     0  02:25        1.04        1.65       0.038
  HS02004830           JUNCTION      0.15   570.47     0  02:16     0.00432       0.801       0.143
  HS02004837           JUNCTION    321.82   736.87     0  02:16       0.695        1.11       0.078
  HS02004842           JUNCTION      0.00   741.48     0  02:19           0        0.72       1.841
  HS02004848           JUNCTION    487.16  1013.42     0  02:19        1.04        1.59       0.025
  HS02004852           JUNCTION      0.00  1007.70     0  02:19           0        1.43      -0.001
  HS02004856           JUNCTION    128.23  1050.09     0  02:18         0.2        1.63       0.091
  HS02004862           JUNCTION    224.51  1130.09     0  02:18       0.447        2.08      -0.004
  HS02004870           JUNCTION    175.94  1178.96     0  02:18       0.274        2.35       0.015
  HS02004876           JUNCTION    202.30  1337.46     0  02:25       0.338        2.69       0.024
  HS02004881           JUNCTION     97.35  1434.58     0  02:25       0.149        2.84       0.007
  HS02004901           JUNCTION    308.63   571.06     0  02:25        0.48       0.743       0.247
  WS02001211           JUNCTION      7.35   204.26     0  03:12       0.212        5.44       0.611
  WS02001212           JUNCTION      0.00   210.32     0  03:13           0        5.41       0.290
  WS02001213           JUNCTION      0.00   212.77     0  03:13           0        5.39       0.333
  WS02003059           JUNCTION      0.00   218.30     0  03:14           0        5.38       0.596
  WS02003060           JUNCTION     16.53  1497.54     0  02:26       0.476        13.6       0.108
  WS02003066           JUNCTION      0.00  1294.89     0  02:25           0         7.8       0.020
  WS02003067           JUNCTION      0.00  1294.49     0  02:25           0         7.8       0.056
  WS02003069           JUNCTION      0.32  1497.74     0  02:26     0.00922        13.6       0.114
  WS02003072           JUNCTION      0.00  1497.48     0  02:27           0        13.6       0.154
  WS02003073           JUNCTION      1.82  1499.43     0  02:27      0.0524        13.6       0.161
  WS02004138           JUNCTION      0.00   380.00     0  00:00           0        5.25       0.052
  WS02004139           JUNCTION      0.32   190.32     0  00:32     0.00924        5.26       0.509
  WS02004401           JUNCTION      0.00  1294.84     0  02:25           0        7.91       0.134
  WS02004402           JUNCTION      0.00  1295.10     0  02:25           0         7.9       0.136
  WS02004403           JUNCTION      0.00  1295.01     0  02:25           0        7.89       0.132
  WS02004404           JUNCTION      0.16  1295.58     0  02:25     0.00467        7.88       0.126
  WS02004405           JUNCTION      0.04  1296.09     0  02:25      0.0011        7.88       0.146
  WS02004406           JUNCTION      0.00  1295.62     0  02:25           0        7.86       0.270
  WS02004407           JUNCTION      0.00  1295.20     0  02:25           0        7.84       0.019
  WS02004409           JUNCTION      0.00  1294.26     0  02:25           0        7.84       0.040
  WS02004410           JUNCTION      0.00  1294.47     0  02:25           0        7.84       0.064
  WS02004411           JUNCTION      0.00  1294.59     0  02:25           0        7.83       0.079
  WS02004412           JUNCTION      0.00  1294.62     0  02:25           0        7.83       0.104
  WS02004413           JUNCTION      0.00  1294.47     0  02:25           0        7.82       0.183
  WS02006109           JUNCTION      1.23  1278.65     0  02:25      0.0354        7.71       0.132
  WS02006110           JUNCTION      0.00  1120.81     0  02:36           0        7.53       0.104
  WS02006111           JUNCTION      0.00  1121.09     0  02:36           0        7.52       0.011
  WS02006112           JUNCTION    269.44  1294.82     0  02:25       0.428        7.94       0.243
  WS02006113           JUNCTION      0.00  1120.94     0  02:36           0        7.52       0.027
  WS02006115           JUNCTION      0.00  1294.74     0  02:25           0        7.92       0.091
  WS02006116           JUNCTION      0.00  1294.96     0  02:25           0        7.92       0.065
  WS02006228           JUNCTION      0.00  1279.06     0  02:25           0        7.68       0.067
  WS02006229           JUNCTION      0.00  2285.02     0  02:25           0        9.65       0.097
  WS02006230           JUNCTION     10.28  1015.89     0  02:25       0.296        3.78       0.257
  WS02006231           JUNCTION      0.00   453.33     0  02:14           0        2.75      -0.157
  WS02006232           JUNCTION      0.00   453.47     0  02:15           0        2.75       0.205
  WS02006234           JUNCTION      0.00   453.26     0  02:15           0        2.73      -0.369
  WS02006235           JUNCTION      0.00   478.91     0  03:35           0        2.84       0.301
  WS02006238           JUNCTION      0.00   415.73     0  02:16           0         2.6      -0.122
  WS02006239           JUNCTION      0.00   415.27     0  02:21           0        2.54      -0.095
  WS02006240           JUNCTION      0.00   414.92     0  02:15           0        2.52      -0.001
  WS02006242           JUNCTION      0.00   415.61     0  02:39           0        2.51      -0.001
  WS02006243           JUNCTION      0.00   384.85     0  03:20           0        2.17      -0.107
  WS02006245           JUNCTION      0.00   384.85     0  03:20           0        2.17       0.564
  WS02006247           JUNCTION      0.00   385.59     0  00:04           0        2.17      -0.018
  WS02006248           JUNCTION      0.00   390.96     0  00:04           0        2.41      -0.138
  WS02006249           JUNCTION      0.00  1335.74     0  02:25           0        4.97       0.211
  WS02006251           JUNCTION      0.08  1466.49     0  02:25     0.00222        5.04      -0.006
  WS02006252           JUNCTION      0.00   504.85     0  02:26           0        2.35      -0.633
  WS02006253           JUNCTION     31.42  1466.24     0  02:25      0.0465        2.94       0.062
  WS02006256           JUNCTION      0.00   300.00     0  00:00           0        1.22      -1.574
  WS02006280           JUNCTION      0.00  2284.89     0  02:25           0        7.87       0.001
  WS02006284           JUNCTION      0.10  2283.05     0  02:25     0.00275        7.87       0.005
  WS02006287           JUNCTION      0.00  2283.91     0  02:25           0        7.87       0.011
  WSF200               JUNCTION      0.00  1295.07     0  02:25           0         7.8       0.010
  YS02001580           JUNCTION      0.00    75.71     0  02:14           0     0.00406       1.661
  YS02001583           JUNCTION      0.00   126.73     0  02:14           0      0.0152      -4.517
  YS02001586           JUNCTION    568.40   568.40     0  02:26        1.26        1.27       0.087
  YS02001590           JUNCTION      0.00   317.99     0  02:35           0        1.11      -0.033
  YS02001593           JUNCTION      0.00   318.00     0  02:29           0        1.11       0.011
  YS02001596           JUNCTION      0.00   317.96     0  02:29           0        1.11      -0.006
  YS02001600           JUNCTION      0.00   317.99     0  02:28           0        1.11       0.013
  YS02001601           JUNCTION    941.13  1258.59     0  02:25        1.69         2.8       0.028
  YS02001602           JUNCTION      0.00   490.89     0  02:14           0        2.02       0.014
  YS02001605           JUNCTION      0.00   490.91     0  02:14           0        1.95       0.011
  YS02001607           JUNCTION      0.00   490.22     0  02:14           0        1.95       0.097
  YS02001610           JUNCTION      0.00   491.45     0  02:13           0        1.98       0.115
  YS02001613           JUNCTION      0.00   492.07     0  02:13           0        1.73       0.090
  YS02001616           JUNCTION      0.00   489.49     0  02:43           0        1.73       0.026
  YS02001619           JUNCTION    979.72   979.72     0  02:26        1.95        3.64      -0.001
  YS02001622           JUNCTION      0.00   943.64     0  02:19           0        3.61       0.001
  YS02001625           JUNCTION      0.00  1028.62     0  02:26           0        3.63       0.245
  YS02001629           JUNCTION      0.00   943.55     0  02:19           0        3.21       0.023
  YS02001633           JUNCTION    728.69  1396.33     0  02:19        1.28        4.46       0.077
  YS02001641           JUNCTION      0.00  1394.04     0  02:19           0        4.43       0.062
  YS02001644           JUNCTION    621.96  1781.63     0  02:20        1.05        5.47       0.062
  YS02001647           JUNCTION      0.00  1780.96     0  02:20           0        5.44       0.009
  YS02001649           JUNCTION      0.00  2050.34     0  02:19           0        6.45       0.006
  YS02001652           JUNCTION      0.00   671.04     0  02:25           0           1      -0.088
  YS02001655           JUNCTION      0.15   671.14     0  02:25     0.00443           1       0.027
  YS02001658           JUNCTION      0.00   670.79     0  02:25           0           1      -0.010
  YS02001661           JUNCTION      0.00   701.83     0  02:24           0           1       0.018
  YS02001664           JUNCTION    632.69   632.69     0  02:25           1           1      -0.007
  YS02001745           JUNCTION    373.93   373.93     0  02:25       0.574       0.574       0.207
  YS02001748           JUNCTION      0.04   525.25     0  02:24      0.0013       0.575      -0.291
  YS02001751           JUNCTION      0.01   445.43     0  02:22    0.000317       0.579       0.046
  YS02001754           JUNCTION      0.26   437.73     0  02:25     0.00749       0.588      -0.200
  YS02001757           JUNCTION      0.00  3420.85     0  02:25           0        9.13       0.069
  YS02001759           JUNCTION    547.36  1300.50     0  02:25       0.839        2.09      -0.003
  YS02001762           JUNCTION      0.00   757.93     0  02:25           0        1.25       0.007
  YS02001765           JUNCTION      0.00   756.54     0  02:25           0        1.25       0.026
  YS02001767           JUNCTION      0.54   756.17     0  02:25      0.0154        1.25      -0.001
  YS02001770           JUNCTION    754.91   754.91     0  02:25        1.24        1.28      -0.002
  YS02001774           JUNCTION      0.00   225.70     0  02:21           0      0.0589       1.964
  YS02001779           JUNCTION      0.01   231.92     0  02:21    0.000144       0.017      -3.135
  YS02001783           JUNCTION      0.00  1155.26     0  02:24           0        3.31       0.007
  YS02001784           JUNCTION      1.06  1156.54     0  02:24      0.0305        3.34       0.015
  YS02001786           JUNCTION      0.06  1156.09     0  02:24     0.00162        3.34       0.018
  YS02001788           JUNCTION      0.07  1156.35     0  02:24     0.00204        3.35       0.009
  YS02001790           JUNCTION      0.15  1169.98     0  02:25     0.00446        3.35       0.030
  YS02001791           JUNCTION      0.00  1280.71     0  02:23           0        3.35      -0.025
  YS02001793           JUNCTION      0.00  1242.64     0  02:23           0        3.35       0.006
  YS02001882           JUNCTION      0.00    34.56     0  02:18           0      0.0125       4.306
  YS02001884           JUNCTION      0.00    41.85     0  02:17           0       0.048       5.167
  YS02001887           JUNCTION    573.43   573.43     0  02:25        0.87       0.904       0.494
  YS02001890           JUNCTION      0.00   574.38     0  02:25           0       0.863       0.582
  YS02001895           JUNCTION      0.00   514.43     0  02:26           0        0.85       0.170
  YS02001898           JUNCTION      0.00   514.86     0  02:26           0       0.848       0.028
  YS02001901           JUNCTION      0.00   514.58     0  02:26           0       0.851       0.384
  YS02001904           JUNCTION      0.00   515.02     0  02:26           0       0.855       0.316
  YS02001907           JUNCTION      0.00  1514.45     0  02:26           0         2.6       0.688
  YS02001910           JUNCTION      0.00  1000.61     0  02:26           0        1.75       0.408
  YS02001915           JUNCTION    626.42  1000.13     0  02:26        1.07        1.78       0.089
  YS02001918           JUNCTION      0.00   450.04     0  02:22           0       0.732       0.010
  YS02001920           JUNCTION      2.87   449.25     0  02:22      0.0827       0.719       0.133
  YS02001923           JUNCTION      0.04   408.09     0  02:22     0.00109       0.624      -0.014
  YS02001926           JUNCTION      0.05   405.36     0  02:22      0.0015       0.608      -0.011
  YS02001929           JUNCTION    326.29   326.29     0  02:26       0.601       0.601      -0.141
  YS02006553           JUNCTION      0.00   793.43     0  02:33           0        2.15       0.547
  YS02006556           JUNCTION      0.00   793.73     0  02:34           0        2.16       0.375
  YS02006558           JUNCTION    750.87  1156.16     0  02:24         1.2        3.34       0.106
  YS02006561           JUNCTION      0.00  1155.11     0  02:24           0        3.31      -0.004
  YS02163301           JUNCTION      0.00   943.88     0  02:19           0         3.2       0.049
  YS02163601           JUNCTION      0.11  1396.05     0  02:19     0.00317        4.43       0.110
  YS02164001           JUNCTION      0.00  1396.31     0  02:19           0        4.43       0.056
  YSB1154              JUNCTION    325.89   325.89     0  02:25       0.538       0.539       0.280
  YSB1171              JUNCTION      0.00   647.44     0  02:25           0       0.956       0.684
  YSB1174              JUNCTION    270.98   270.98     0  02:25       0.401       0.401       0.329
  YSB6556              JUNCTION      0.00   326.01     0  02:25           0        0.54       0.235
  CC-1                 OUTFALL       0.00   683.00     0  00:00           0        4.34       0.000
  CC-2                 OUTFALL       0.00   683.00     0  00:00           0        3.33       0.000
  JK-1                 OUTFALL       0.00  1000.00     0  00:00           0        1.61       0.000
  JK-2                 OUTFALL       0.00  1000.00     0  00:00           0       0.638       0.000
  WSC                  OUTFALL       0.00  1499.75     0  02:28           0        13.6       0.000
  CC-storage           STORAGE       0.00  3421.35     0  02:25           0        11.3      -0.278
  JK-storage           STORAGE       0.00  1249.25     0  02:23           0         3.5      -0.469
  XR-storage           STORAGE     200.00   200.00     0  00:00        5.76        6.36       0.001
  
  
  **********************
  Node Surcharge Summary
  **********************
  
  Surcharging occurs when water rises above the top of the highest conduit.
  ---------------------------------------------------------------------
                                               Max. Height   Min. Depth
                                   Hours       Above Crown    Below Rim
  Node                 Type      Surcharged         Meters       Meters
  ---------------------------------------------------------------------
  HS02004478           JUNCTION        0.39          0.645        0.295
  HS02004479           JUNCTION        0.52          0.899        0.151
  HS02004480           JUNCTION        0.56          0.963        0.137
  HS02004770           JUNCTION        0.47          0.720        0.000
  HS02004777           JUNCTION        0.47          0.780        0.000
  HS02004785           JUNCTION        0.42          0.771        0.019
  HS02004788           JUNCTION        0.41          0.720        0.000
  HS02004792           JUNCTION        0.53          0.900        0.000
  HS02004799           JUNCTION        0.66          1.060        0.000
  HS02004802           JUNCTION        0.57          1.045        0.165
  HS02004807           JUNCTION        0.55          1.202        0.018
  HS02004817           JUNCTION        1.12          1.692        0.048
  HS02004824           JUNCTION        0.42          1.268        0.042
  HS02004830           JUNCTION        0.38          1.300        0.030
  HS02004837           JUNCTION        0.35          1.259        0.081
  HS02004842           JUNCTION        0.48          1.520        0.000
  HS02004848           JUNCTION        0.30          1.228        0.142
  HS02004852           JUNCTION        0.33          1.231        0.189
  HS02004856           JUNCTION        0.32          1.154        0.146
  HS02004862           JUNCTION        0.35          1.164        0.136
  HS02004870           JUNCTION        0.37          1.108        0.292
  HS02004876           JUNCTION        0.43          1.161        0.399
  HS02004881           JUNCTION        0.41          0.909        0.541
  HS02004901           JUNCTION        0.47          0.720        0.000
  WS02004401           JUNCTION        1.42          0.844        0.816
  WS02004402           JUNCTION        1.45          0.784        0.956
  WS02004403           JUNCTION        1.45          0.706        1.324
  WS02004404           JUNCTION        1.56          0.720        2.060
  WS02004405           JUNCTION        1.55          0.667        2.133
  WS02004406           JUNCTION        1.53          0.558        1.892
  WS02004409           JUNCTION        0.98          0.376        1.984
  WS02004410           JUNCTION        0.90          0.290        2.250
  WS02004411           JUNCTION        0.80          0.199        2.331
  WS02004412           JUNCTION        0.68          0.101        2.209
  WS02004413           JUNCTION        1.18          0.143        2.057
  WS02006109           JUNCTION        1.96          1.820        0.000
  WS02006110           JUNCTION        1.67          1.475        0.375
  WS02006111           JUNCTION        1.14          0.916        0.954
  WS02006112           JUNCTION        1.75          1.356        0.324
  WS02006113           JUNCTION        1.14          1.012        0.918
  WS02006115           JUNCTION        1.29          0.921        1.329
  WS02006116           JUNCTION        1.32          0.861        1.429
  WS02006228           JUNCTION        1.96          2.200        0.000
  WS02006229           JUNCTION        0.84          1.047        0.023
  WS02006230           JUNCTION        1.55          1.570        0.000
  WS02006231           JUNCTION        1.57          1.502        0.028
  WS02006232           JUNCTION        1.72          1.480        0.000
  WS02006234           JUNCTION        1.59          1.240        0.000
  WS02006235           JUNCTION        1.62          1.290        0.000
  WS02006238           JUNCTION        1.64          1.306        0.124
  WS02006239           JUNCTION        1.56          1.129        0.161
  WS02006240           JUNCTION        1.54          0.967        0.423
  WS02006242           JUNCTION        1.58          0.820        0.000
  WS02006243           JUNCTION        1.47          0.674        0.096
  WS02006245           JUNCTION        1.45          0.567        0.283
  WS02006247           JUNCTION        1.46          0.549        0.211
  WS02006248           JUNCTION        1.44          0.380        0.000
  WS02006249           JUNCTION        1.44          0.390        0.000
  WS02006251           JUNCTION        1.37          1.101        0.079
  WS02006252           JUNCTION        1.54          1.100        0.000
  WS02006253           JUNCTION        1.38          1.820        0.660
  WS02006256           JUNCTION        7.08          2.050        0.000
  WS02006280           JUNCTION        0.67          0.696        0.084
  WS02006284           JUNCTION        0.59          0.661        0.139
  WS02006287           JUNCTION        0.49          0.725        0.165
  YS02001580           JUNCTION        0.45          0.450        0.000
  YS02001583           JUNCTION        0.46          0.381        0.119
  YS02001586           JUNCTION        0.54          0.510        0.000
  YS02001590           JUNCTION        0.61          0.750        0.000
  YS02001593           JUNCTION        0.62          0.720        0.120
  YS02001596           JUNCTION        0.73          0.954        0.116
  YS02001600           JUNCTION        0.88          1.190        0.000
  YS02001601           JUNCTION        1.24          1.440        0.000
  YS02001602           JUNCTION        1.13          1.270        0.000
  YS02001605           JUNCTION        1.07          1.174        0.006
  YS02001607           JUNCTION        0.57          0.647        0.033
  YS02001610           JUNCTION        0.59          0.680        0.000
  YS02001613           JUNCTION        0.56          0.654        0.046
  YS02001616           JUNCTION        0.52          0.603        0.007
  YS02001619           JUNCTION        0.51          0.591        0.019
  YS02001622           JUNCTION        0.51          0.564        0.056
  YS02001625           JUNCTION        0.68          0.780        0.000
  YS02001629           JUNCTION        0.45          0.470        0.000
  YS02001633           JUNCTION        0.69          1.004        0.056
  YS02001641           JUNCTION        0.60          0.950        0.150
  YS02001644           JUNCTION        0.56          0.920        0.000
  YS02001647           JUNCTION        0.34          0.710        0.190
  YS02001649           JUNCTION        0.41          0.892        0.158
  YS02001652           JUNCTION        0.26          0.673        0.457
  YS02001655           JUNCTION        0.17          0.509        0.691
  YS02001658           JUNCTION        0.07          0.199        1.101
  YS02001748           JUNCTION        0.01          0.282        0.908
  YS02001751           JUNCTION        0.09          0.491        0.709
  YS02001754           JUNCTION        0.18          0.571        0.579
  YS02001757           JUNCTION        0.44          0.907        0.303
  YS02001759           JUNCTION        0.36          0.878        0.332
  YS02001762           JUNCTION        0.33          0.880        0.270
  YS02001765           JUNCTION        0.30          0.860        0.240
  YS02001767           JUNCTION        0.27          0.864        0.166
  YS02001770           JUNCTION        0.25          0.887        0.033
  YS02001774           JUNCTION        0.32          0.978        0.072
  YS02001779           JUNCTION        0.18          0.680        0.000
  YS02001783           JUNCTION        0.37          0.526        1.074
  YS02001784           JUNCTION        0.35          0.354        1.136
  YS02001786           JUNCTION        0.25          0.096        1.334
  YS02001882           JUNCTION        0.32          0.671        0.159
  YS02001884           JUNCTION        0.33          0.701        0.169
  YS02001887           JUNCTION        0.37          0.771        0.179
  YS02001890           JUNCTION        0.38          0.760        0.000
  YS02001895           JUNCTION        0.31          0.566        0.184
  YS02001898           JUNCTION        0.31          0.536        0.204
  YS02001901           JUNCTION        0.35          0.678        0.192
  YS02001904           JUNCTION        0.34          0.641        0.209
  YS02001907           JUNCTION        0.60          0.950        0.000
  YS02001910           JUNCTION        0.40          0.978        0.122
  YS02001915           JUNCTION        0.32          0.929        0.071
  YS02001918           JUNCTION        0.24          0.810        0.000
  YS02001920           JUNCTION        0.25          1.107        0.033
  YS02001923           JUNCTION        0.01          0.813        0.007
  YS02001926           JUNCTION        0.02          0.900        0.000
  YS02001929           JUNCTION        0.01          0.780        0.000
  YS02006553           JUNCTION        0.62          0.972        0.218
  YS02006556           JUNCTION        0.50          0.908        0.442
  YS02006558           JUNCTION        0.48          0.890        0.510
  YS02006561           JUNCTION        0.21          0.254        0.896
  YS02163301           JUNCTION        0.67          0.916        0.114
  YS02163601           JUNCTION        0.72          1.043        0.037
  YS02164001           JUNCTION        0.61          0.953        0.147
  YSB1154              JUNCTION        0.78          1.197        0.203
  YSB1171              JUNCTION        0.78          1.100        0.000
  YSB1174              JUNCTION        0.70          1.090        0.160
  YSB6556              JUNCTION        0.63          1.043        0.057
  
  
  *********************
  Node Flooding Summary
  *********************
  
  Flooding refers to all water that overflows a node, whether it ponds or not.
  --------------------------------------------------------------------------
                                                             Total   Maximum
                                 Maximum   Time of Max       Flood    Ponded
                        Hours       Rate    Occurrence      Volume     Depth
  Node                 Flooded       LPS   days hr:min    10^6 ltr    Meters
  --------------------------------------------------------------------------
  HS02004770              0.31    783.28      0  02:25       0.399     0.000
  HS02004777              0.01     29.58      0  02:15       0.000     0.000
  HS02004788              0.01    121.38      0  02:15       0.000     0.000
  HS02004792              0.29   1364.32      0  02:25       0.763     0.000
  HS02004799              0.09     93.02      0  02:25       0.015     0.000
  HS02004842              0.01     43.61      0  02:19       0.000     0.000
  HS02004901              0.36    570.88      0  02:25       0.515     0.000
  WS02006109              0.33    253.40      0  02:25       0.171     0.000
  WS02006228              0.01      1.24      0  02:19       0.000     0.000
  WS02006230              0.60    562.99      0  02:25       0.762     0.000
  WS02006232              0.15      0.81      0  02:40       0.000     0.000
  WS02006234              0.66    129.09      0  02:39       0.247     0.000
  WS02006235              0.01      4.25      0  02:50       0.000     0.000
  WS02006242              0.77    137.48      0  02:15       0.336     0.000
  WS02006248              1.15    338.99      0  02:29       1.157     0.000
  WS02006249              1.41   1274.76      0  02:25       3.471     0.000
  WS02006252              0.36    503.85      0  02:26       0.260     0.000
  WS02006256              1.13    293.71      0  02:15       0.686     0.000
  YS02001580              0.01     41.59      0  02:15       0.000     0.000
  YS02001586              0.33    250.84      0  02:26       0.149     0.000
  YS02001590              0.01      8.26      0  02:15       0.000     0.000
  YS02001600              0.01      2.62      0  02:15       0.000     0.000
  YS02001601              0.48    860.75      0  02:25       0.782     0.000
  YS02001602              0.34     62.00      0  02:31       0.066     0.000
  YS02001610              0.28    458.72      0  02:26       0.284     0.000
  YS02001625              0.25   1028.61      0  02:26       0.440     0.000
  YS02001629              0.05     88.29      0  02:24       0.009     0.000
  YS02001644              0.05    205.13      0  02:25       0.018     0.000
  YS02001779              0.01    174.97      0  02:21       0.001     0.000
  YS02001890              0.07     64.21      0  02:25       0.009     0.000
  YS02001907              0.20   1086.29      0  02:26       0.437     0.000
  YS02001918              0.01     99.58      0  02:21       0.001     0.000
  YS02001926              0.01     39.12      0  02:21       0.000     0.000
  YS02001929              0.01    222.52      0  02:21       0.001     0.000
  YSB1171                 0.19    647.06      0  02:25       0.232     0.000
  
  
  **********************
  Storage Volume Summary
  **********************
  
  --------------------------------------------------------------------------------------------------
                         Average     Avg  Evap Exfil       Maximum     Max    Time of Max    Maximum
                          Volume    Pcnt  Pcnt  Pcnt        Volume    Pcnt     Occurrence    Outflow
  Storage Unit           1000 m3    Full  Loss  Loss       1000 m3    Full    days hr:min        LPS
  --------------------------------------------------------------------------------------------------
  CC-storage               1.847      29     0     0         3.902      61       0  02:53    1783.53
  JK-storage               0.066      23     0     0         0.188      65       0  02:45    2300.00
  XR-storage               0.926      64     0     0         1.111      77       0  08:00     380.00
  
  
  ***********************
  Outfall Loading Summary
  ***********************
  
  -----------------------------------------------------------
                         Flow       Avg       Max       Total
                         Freq      Flow      Flow      Volume
  Outfall Node           Pcnt       LPS       LPS    10^6 ltr
  -----------------------------------------------------------
  CC-1                  39.02    683.00    683.00       4.335
  CC-2                  28.42    683.00    683.00       3.327
  JK-1                   8.33   1000.00   1000.00       1.612
  JK-2                   3.31   1000.00   1000.00       0.638
  WSC                   99.95    570.24   1499.75      13.604
  -----------------------------------------------------------
  System                35.81   3936.24   1499.75      23.516
  
  
  ********************
  Link Flow Summary
  ********************
  
  -----------------------------------------------------------------------------
                                 Maximum  Time of Max   Maximum    Max/    Max/
                                  |Flow|   Occurrence   |Veloc|    Full    Full
  Link                 Type          LPS  days hr:min     m/sec    Flow   Depth
  -----------------------------------------------------------------------------
  1                    CONDUIT   1499.75     0  02:28      3.69    0.52    0.51
  HS02004478WS02006287 CONDUIT   2283.91     0  02:25      2.60    0.64    1.00
  HS02004479HS02004480 CONDUIT    388.43     0  02:20      0.55    0.38    1.00
  HS02004480HS02004478 CONDUIT   2056.45     0  02:18      2.94    8.66    1.00
  HS02004770HS02004777 CONDUIT    703.49     0  02:15      1.00    1.29    1.00
  HS02004777HS02004785 CONDUIT    711.76     0  02:15      1.07    0.88    1.00
  HS02004785HS02004788 CONDUIT    632.54     0  02:15      1.36    4.77    1.00
  HS02004788HS02004792 CONDUIT    834.41     0  02:16      1.43    0.55    1.00
  HS02004792HS02004799 CONDUIT   1625.74     0  02:16      2.32    1.00    1.00
  HS02004799HS02004480 CONDUIT   1746.50     0  02:16      2.49    2.21    1.00
  HS02004802HS02004478 CONDUIT   1029.91     0  02:25      1.47    0.91    1.00
  HS02004807HS02004802 CONDUIT   1029.96     0  02:25      1.47    1.97    1.00
  HS02004817HS02004807 CONDUIT    711.08     0  02:25      1.02    0.42    1.00
  HS02004817HS02004824 CONDUIT    710.78     0  02:25      1.02    0.32    1.00
  HS02004824HS02004830 CONDUIT    570.32     0  02:16      0.84    0.75    1.00
  HS02004830HS02004837 CONDUIT    582.14     0  02:16      0.92    0.58    1.00
  HS02004837HS02004842 CONDUIT    741.48     0  02:19      1.06    0.44    1.00
  HS02004842HS02004848 CONDUIT    740.55     0  02:19      1.11    0.43    1.00
  HS02004848HS02004852 CONDUIT   1007.70     0  02:19      1.53    1.14    1.00
  HS02004852HS02004856 CONDUIT    976.06     0  02:18      1.44    1.12    1.00
  HS02004856HS02004862 CONDUIT   1007.03     0  02:18      1.66    1.00    1.00
  HS02004862HS02004870 CONDUIT   1081.45     0  02:18      1.89    1.17    1.00
  HS02004870HS02004876 CONDUIT   1135.66     0  02:25      1.75    0.75    1.00
  HS02004876HS02004881 CONDUIT   1338.11     0  02:25      2.41   14.23    1.00
  HS02004881HS02006253 CONDUIT   1435.15     0  02:25      2.66    0.28    1.00
  HS02004901HS02004770 CONDUIT    265.78     0  02:34      0.38    1.00    1.00
  WS02001211WS02001212 CONDUIT    210.32     0  03:13      0.54    0.16    0.69
  WS02001212WS02001213 CONDUIT    212.77     0  03:13      1.04    0.33    0.56
  WS02001213WS02003059 CONDUIT    218.30     0  03:14      0.47    0.36    0.89
  WS02003059WS02003060 CONDUIT    222.55     0  03:14      0.66    0.15    0.81
  WS02003060WS02003069 CONDUIT   1497.42     0  02:26      2.08    0.59    0.61
  WS02003066WSF200     CONDUIT   1295.07     0  02:25      3.24    0.22    0.38
  WS02003067WS02003066 CONDUIT   1294.89     0  02:25      1.99    0.42    0.56
  WS02003069WS02003072 CONDUIT   1497.48     0  02:27      1.89    0.72    0.66
  WS02003072WS02003073 CONDUIT   1497.61     0  02:27      2.05    3.23    0.62
  WS02004138WS02004139 CONDUIT    190.00     0  00:32      2.17    0.04    0.41
  WS02004139WS02001211 CONDUIT    196.91     0  03:12      0.54    0.25    0.60
  WS02004401WS02004402 CONDUIT   1295.10     0  02:25      1.65    1.55    1.00
  WS02004402WS02004403 CONDUIT   1295.01     0  02:25      1.65    1.86    1.00
  WS02004403WS02004404 CONDUIT   1295.41     0  02:25      1.65    0.94    1.00
  WS02004404WS02004405 CONDUIT   1296.05     0  02:25      1.65   12.70    1.00
  WS02004405WS02004406 CONDUIT   1295.62     0  02:25      1.65    2.56    1.00
  WS02004406WS02004407 CONDUIT   1295.20     0  02:25      1.69    0.58    0.96
  WS02004407WS02004409 CONDUIT   1294.26     0  02:25      1.77    0.46    0.96
  WS02004409WS02004410 CONDUIT   1294.47     0  02:25      1.65    1.67    1.00
  WS02004410WS02004411 CONDUIT   1294.59     0  02:25      1.65    1.77    1.00
  WS02004411WS02004412 CONDUIT   1294.62     0  02:25      1.65    1.84    1.00
  WS02004412WS02004413 CONDUIT   1294.47     0  02:25      1.65    0.87    1.00
  WS02004413WS02003067 CONDUIT   1294.49     0  02:25      2.01    0.55    0.77
  WS02006109WS02006110 CONDUIT   1120.81     0  02:36      2.23    2.15    1.00
  WS02006110WS02006113 CONDUIT   1120.94     0  02:36      2.23    1.02    1.00
  WS02006111WS02006112 CONDUIT   1121.07     0  02:36      2.23    0.53    1.00
  WS02006112WS02006115 CONDUIT   1294.74     0  02:25      1.65    0.76    1.00
  WS02006113WS02006111 CONDUIT   1121.09     0  02:36      2.61    1.34    1.00
  WS02006115WS02006116 CONDUIT   1294.96     0  02:25      1.65    1.66    1.00
  WS02006116WS02004401 CONDUIT   1294.84     0  02:25      1.65    1.78    1.00
  WS02006228WS02006109 CONDUIT   1277.42     0  02:25      2.54    5.58    1.00
  WS02006229WS02006228 CONDUIT   1279.06     0  02:25      2.54    4.24    1.00
  WS02006230WS02006229 CONDUIT   1005.61     0  02:25      2.61   22.38    1.00
  WS02006231WS02006230 CONDUIT    453.33     0  02:14      1.21    6.88    1.00
  WS02006232WS02006231 CONDUIT    453.47     0  02:15      1.18    0.95    1.00
  WS02006234WS02006232 CONDUIT    453.26     0  02:15      1.41    0.92    1.00
  WS02006235WS02006234 CONDUIT    432.14     0  03:35      1.21    4.56    1.00
  WS02006238WS02006235 CONDUIT    415.73     0  02:16      1.45    0.93    1.00
  WS02006239WS02006238 CONDUIT    415.27     0  02:21      1.11    1.33    1.00
  WS02006240WS02006239 CONDUIT    414.92     0  02:15      1.26    1.31    1.00
  WS02006242WS02006240 CONDUIT    415.61     0  02:39      1.14    1.65    1.00
  WS02006243WS02006242 CONDUIT    384.90     0  03:20      1.34    0.82    1.00
  WS02006245WS02006243 CONDUIT    384.85     0  03:20      1.39    1.14    1.00
  WS02006247WS02006245 CONDUIT    384.85     0  03:20      1.37    3.05    1.00
  WS02006248WS02006247 CONDUIT    385.59     0  00:04      1.38    0.84    1.00
  WS02006249WS02006248 CONDUIT    390.96     0  00:04      1.38    2.14    1.00
  WS02006251WS02006249 CONDUIT   1335.74     0  02:25      3.47    3.85    1.00
  WS02006252WS02006251 CONDUIT    414.34     0  01:55     19.64    1.52    1.00
  WS02006253WS02006251 CONDUIT   1466.41     0  02:25      3.81    4.40    1.00
  WS02006256WS02006235 CONDUIT    288.93     0  00:00      4.23    3.06    1.00
  WS02006280WS02006229 CONDUIT   2285.02     0  02:25      4.27    0.49    1.00
  WS02006284WS02006280 CONDUIT   2284.89     0  02:25      2.96    0.96    1.00
  WS02006287WS02006284 CONDUIT   2282.96     0  02:25      2.91    1.06    1.00
  WSF200WS02003060     CONDUIT   1295.18     0  02:26      2.28    0.29    0.50
  YS02001580YS02001583 CONDUIT     75.71     0  02:14      0.54    0.29    1.00
  YS02001583YS02001586 CONDUIT    126.73     0  02:14      0.52    0.19    1.00
  YS02001586YS02001590 CONDUIT    317.99     0  02:35      1.26    0.56    1.00
  YS02001590YS02001593 CONDUIT    318.00     0  02:29      1.12    2.00    1.00
  YS02001593YS02001596 CONDUIT    317.96     0  02:29      1.76    0.50    1.00
  YS02001596YS02001600 CONDUIT    317.99     0  02:28      1.25    0.62    1.00
  YS02001600YS02001601 CONDUIT    317.93     0  02:28      1.12    0.55    1.00
  YS02001601YS02001602 CONDUIT    490.89     0  02:14      1.74    1.77    1.00
  YS02001602YS02001605 CONDUIT    490.91     0  02:14      1.74   10.39    1.00
  YS02001605YS02001607 CONDUIT    490.22     0  02:14      1.73    2.69    1.00
  YS02001607YS02001610 CONDUIT    491.45     0  02:13      0.63    0.47    1.00
  YS02001610YS02001613 CONDUIT    492.07     0  02:13      0.63    0.57    1.00
  YS02001613YS02001616 CONDUIT    489.49     0  02:43      0.63    0.42    1.00
  YS02001616YS02001619 CONDUIT    490.72     0  02:14      0.67    0.85    1.00
  YS02001619YS02001622 CONDUIT    943.64     0  02:19      1.20    1.39    1.00
  YS02001622YS02001625 CONDUIT    944.08     0  02:19      1.20    0.50    1.00
  YS02001625YS02001629 CONDUIT    943.55     0  02:19      1.20    0.45    1.00
  YS02001629YS02163301 CONDUIT    943.88     0  02:19      1.20    1.16    1.00
  YS02001633YS02163601 CONDUIT   1395.94     0  02:19      1.78    1.47    1.00
  YS02001641YS02001644 CONDUIT   1394.06     0  02:19      1.77    4.51    1.00
  YS02001644YS02001647 CONDUIT   1780.96     0  02:20      2.28    1.05    1.00
  YS02001647YS02001649 CONDUIT   1795.37     0  02:20      2.35    0.95    1.00
  YS02001649YS02001757 CONDUIT   2047.02     0  02:21      2.61    1.24    1.00
  YS02001652YS02001649 CONDUIT    670.71     0  02:25      0.85    0.33    1.00
  YS02001655YS02001652 CONDUIT    671.04     0  02:25      1.24    0.33    1.00
  YS02001658YS02001655 CONDUIT    670.99     0  02:25      1.86    0.28    1.00
  YS02001661YS02001658 CONDUIT    670.79     0  02:25      2.30    0.26    0.94
  YS02001664YS02001661 CONDUIT    701.83     0  02:24      2.28    0.22    0.64
  YS02001745YS02001748 CONDUIT    525.21     0  02:24      2.10    0.20    0.81
  YS02001748YS02001751 CONDUIT    436.40     0  02:25      1.63    0.22    1.00
  YS02001751YS02001754 CONDUIT    437.47     0  02:25      1.36    0.21    1.00
  YS02001754YS02001757 CONDUIT    439.07     0  02:25      0.56    0.18    1.00
  YS02001757CaochengTiaoxuchi CONDUIT   3421.35     0  02:25      4.38    1.48    1.00
  YS02001759YS02001757 CONDUIT   1299.84     0  02:25      1.65    0.92    1.00
  YS02001762YS02001759 CONDUIT    759.14     0  02:25      0.97    0.87    1.00
  YS02001765YS02001762 CONDUIT    757.93     0  02:25      0.97    0.71    1.00
  YS02001767YS02001765 CONDUIT    756.54     0  02:25      0.96    0.95    1.00
  YS02001770YS02001767 CONDUIT    755.64     0  02:25      0.96    2.99    1.00
  YS02001774YS02001770 CONDUIT    225.70     0  02:21      0.29    0.14    1.00
  YS02001779YS02001774 CONDUIT    231.92     0  02:21      0.30    0.12    1.00
  YS02001783YS02001784 CONDUIT   1155.48     0  02:24      2.30    1.59    1.00
  YS02001784YS02001785 CONDUIT   1156.04     0  02:24      2.30    2.69    1.00
  YS02001786YS02001788 CONDUIT   1156.28     0  02:24      2.47    2.23    0.89
  YS02001788YS02001790 CONDUIT   1169.83     0  02:25      2.71    0.86    0.84
  YS02001790YS02001791 CONDUIT   1280.71     0  02:23      3.40    1.39    0.70
  YS02001791YS02001793 CONDUIT   1242.64     0  02:23      6.79    0.53    0.40
  YS02001793JiankangQianchi CONDUIT   1249.25     0  02:23      2.51    0.10    0.61
  YS02001882YS02001884 CONDUIT     34.56     0  02:18      0.12    0.04    1.00
  YS02001884YS02001887 CONDUIT     41.85     0  02:17      0.08    0.06    1.00
  YS02001887YS02001890 CONDUIT    574.38     0  02:25      0.73    0.98    1.00
  YS02001890YS02001895 CONDUIT    514.43     0  02:26      0.65    0.24    1.00
  YS02001895YS02001898 CONDUIT    514.86     0  02:26      0.66    0.89    1.00
  YS02001898YS02001901 CONDUIT    514.58     0  02:26      0.66    0.33    1.00
  YS02001901YS02001904 CONDUIT    515.02     0  02:26      0.66    0.80    1.00
  YS02001904YS02001907 CONDUIT    514.67     0  02:26      0.66    0.18    1.00
  YS02001907YS02006553 CONDUIT    793.43     0  02:33      0.88    0.93    1.00
  YS02001910YS02001907 CONDUIT   1000.72     0  02:26      1.27    0.56    1.00
  YS02001915YS02001910 CONDUIT   1000.61     0  02:26      1.27    0.50    1.00
  YS02001918YS02001915 CONDUIT    451.74     0  02:22      0.58    0.25    1.00
  YS02001920YS02001918 CONDUIT    450.04     0  02:22      0.65    0.44    1.00
  YS02001923YS02001920 CONDUIT    446.38     0  02:22      0.71    0.20    1.00
  YS02001926YS02001923 CONDUIT    408.06     0  02:22      0.96    0.58    1.00
  YS02001929YS02001926 CONDUIT    405.31     0  02:22      1.10    0.19    1.00
  YS02006553YS02006556 CONDUIT    793.73     0  02:34      1.01    0.68    1.00
  YS02006556YS02006558 CONDUIT    795.47     0  02:34      1.01    0.63    1.00
  YS02006558YS02006561 CONDUIT   1155.11     0  02:24      4.09    2.55    1.00
  YS02006561YS02001783 CONDUIT   1155.26     0  02:24      2.30    0.60    1.00
  YS02163301YS02001633 CONDUIT    943.14     0  02:19      1.20    0.89    1.00
  YS02163601YS02164001 CONDUIT   1396.31     0  02:19      1.78    1.24    1.00
  YS02164001YS02001641 CONDUIT   1394.04     0  02:19      1.77    1.90    1.00
  YSB1154YSB6556       CONDUIT    326.01     0  02:25      0.85    0.59    1.00
  YSB1171HS02004479    CONDUIT    386.49     0  02:20      0.77    0.26    1.00
  YSB1174YSB1171       CONDUIT    271.01     0  02:25      0.70    0.42    1.00
  YSB6556YSB1171       CONDUIT    326.48     0  02:25      0.85    0.34    1.00
  CC-R1                PUMP       683.00     0  00:00              1.00
  CC-R2                PUMP       683.00     0  00:00              1.00
  CC-S1                PUMP       200.00     0  00:00              1.00
  CC-S2                PUMP       200.00     0  00:00              1.00
  JK-R1                PUMP      1000.00     0  00:00              1.00
  JK-R2                PUMP      1000.00     0  00:00              1.00
  JK-S                 PUMP       300.00     0  00:00              1.00
  XR-1                 PUMP        95.00     0  00:00              1.00
  XR-2                 PUMP        95.00     0  00:00              1.00
  XR-3                 PUMP        95.00     0  00:00              1.00
  XR-4                 PUMP        95.00     0  00:00              1.00
  
  
  ***************************
  Flow Classification Summary
  ***************************
  
  -------------------------------------------------------------------------------------
                      Adjusted    ---------- Fraction of Time in Flow Class ---------- 
                       /Actual         Up    Down  Sub   Sup   Up    Down  Norm  Inlet 
  Conduit               Length    Dry  Dry   Dry   Crit  Crit  Crit  Crit  Ltd   Ctrl  
  -------------------------------------------------------------------------------------
  1                       1.00   0.00  0.00  0.00  0.00  1.00  0.00  0.00  0.35  0.00
  HS02004478WS02006287    1.00   0.18  0.00  0.00  0.51  0.30  0.00  0.00  0.59  0.00
  HS02004479HS02004480    1.00   0.09  0.00  0.00  0.91  0.00  0.00  0.00  0.11  0.00
  HS02004480HS02004478    1.00   0.17  0.00  0.00  0.43  0.00  0.00  0.40  0.00  0.00
  HS02004770HS02004777    1.00   0.00  0.17  0.00  0.83  0.00  0.00  0.00  0.03  0.00
  HS02004777HS02004785    1.00   0.00  0.00  0.00  1.00  0.00  0.00  0.00  0.12  0.00
  HS02004785HS02004788    1.00   0.00  0.00  0.00  1.00  0.00  0.00  0.00  0.00  0.00
  HS02004788HS02004792    1.00   0.00  0.00  0.00  0.99  0.01  0.00  0.00  0.91  0.00
  HS02004792HS02004799    1.00   0.00  0.00  0.00  0.98  0.02  0.00  0.00  0.87  0.00
  HS02004799HS02004480    1.00   0.00  0.09  0.00  0.82  0.00  0.09  0.00  0.00  0.00
  HS02004802HS02004478    1.00   0.17  0.00  0.00  0.83  0.00  0.00  0.00  0.03  0.00
  HS02004807HS02004802    1.00   0.17  0.00  0.00  0.82  0.00  0.00  0.01  0.00  0.00
  HS02004817HS02004807    1.00   0.00  0.17  0.00  0.83  0.00  0.00  0.00  0.01  0.00
  HS02004817HS02004824    1.00   0.00  0.00  0.00  1.00  0.00  0.00  0.00  0.83  0.00
  HS02004824HS02004830    1.00   0.00  0.00  0.00  1.00  0.00  0.00  0.00  0.01  0.00
  HS02004830HS02004837    1.00   0.00  0.00  0.00  1.00  0.00  0.00  0.00  0.89  0.00
  HS02004837HS02004842    1.00   0.00  0.00  0.00  1.00  0.00  0.00  0.00  0.11  0.00
  HS02004842HS02004848    1.00   0.00  0.17  0.00  0.83  0.00  0.00  0.00  0.57  0.00
  HS02004848HS02004852    1.00   0.17  0.00  0.00  0.83  0.00  0.00  0.00  0.69  0.00
  HS02004852HS02004856    1.00   0.17  0.00  0.00  0.83  0.00  0.00  0.00  0.69  0.00
  HS02004856HS02004862    1.00   0.00  0.19  0.00  0.81  0.00  0.00  0.00  0.75  0.00
  HS02004862HS02004870    1.00   0.00  0.00  0.00  1.00  0.00  0.00  0.00  0.03  0.00
  HS02004870HS02004876    1.00   0.00  0.00  0.00  0.96  0.03  0.00  0.00  0.87  0.00
  HS02004876HS02004881    1.00   0.04  0.00  0.00  0.75  0.22  0.00  0.00  0.00  0.00
  HS02004881HS02006253    1.00   0.00  0.13  0.00  0.36  0.03  0.00  0.48  0.16  0.00
  HS02004901HS02004770    1.00   0.17  0.00  0.00  0.83  0.00  0.00  0.00  0.00  0.00
  WS02001211WS02001212    1.00   0.00  0.05  0.00  0.95  0.00  0.00  0.00  0.00  0.00
  WS02001212WS02001213    1.00   0.05  0.01  0.00  0.43  0.00  0.51  0.00  0.00  0.00
  WS02001213WS02003059    1.00   0.00  0.00  0.00  0.99  0.00  0.00  0.00  0.00  0.00
  WS02003059WS02003060    1.00   0.00  0.00  0.00  1.00  0.00  0.00  0.00  0.03  0.00
  WS02003060WS02003069    1.00   0.00  0.00  0.00  0.97  0.03  0.00  0.00  0.48  0.00
  WS02003066WSF200        1.00   0.14  0.00  0.00  0.00  0.86  0.00  0.00  0.70  0.00
  WS02003067WS02003066    1.00   0.13  0.00  0.00  0.86  0.00  0.00  0.00  0.00  0.00
  WS02003069WS02003072    1.00   0.00  0.00  0.00  1.00  0.00  0.00  0.00  0.68  0.00
  WS02003072WS02003073    1.00   0.00  0.00  0.00  0.00  0.00  0.00  1.00  0.00  0.00
  WS02004138WS02004139    1.00   0.00  0.01  0.00  0.94  0.02  0.00  0.02  0.98  0.00
  WS02004139WS02001211    1.00   0.00  0.00  0.00  0.99  0.00  0.00  0.00  0.00  0.00
  WS02004401WS02004402    1.00   0.05  0.00  0.00  0.95  0.00  0.00  0.00  0.00  0.00
  WS02004402WS02004403    1.00   0.05  0.00  0.00  0.94  0.00  0.00  0.00  0.00  0.00
  WS02004403WS02004404    1.00   0.00  0.06  0.00  0.94  0.00  0.00  0.00  0.00  0.00
  WS02004404WS02004405    1.00   0.00  0.00  0.00  1.00  0.00  0.00  0.00  0.02  0.00
  WS02004405WS02004406    1.00   0.00  0.00  0.00  1.00  0.00  0.00  0.00  0.00  0.00
  WS02004406WS02004407    1.00   0.00  0.10  0.00  0.90  0.00  0.00  0.00  0.00  0.00
  WS02004407WS02004409    1.00   0.10  0.00  0.00  0.87  0.03  0.00  0.00  0.83  0.00
  WS02004409WS02004410    1.00   0.10  0.00  0.00  0.90  0.00  0.00  0.00  0.00  0.00
  WS02004410WS02004411    1.00   0.10  0.00  0.00  0.89  0.00  0.00  0.00  0.00  0.00
  WS02004411WS02004412    1.00   0.11  0.00  0.00  0.89  0.00  0.00  0.00  0.00  0.00
  WS02004412WS02004413    1.00   0.11  0.00  0.00  0.88  0.00  0.00  0.00  0.00  0.00
  WS02004413WS02003067    1.00   0.12  0.01  0.00  0.00  0.00  0.87  0.00  0.00  0.00
  WS02006109WS02006110    1.00   0.00  0.01  0.00  0.97  0.00  0.02  0.00  0.00  0.00
  WS02006110WS02006113    1.00   0.01  0.03  0.00  0.97  0.00  0.00  0.00  0.00  0.00
  WS02006111WS02006112    1.00   0.04  0.00  0.00  0.95  0.01  0.00  0.01  0.78  0.00
  WS02006112WS02006115    1.00   0.04  0.01  0.00  0.94  0.00  0.01  0.00  0.00  0.00
  WS02006113WS02006111    1.00   0.03  0.00  0.00  0.23  0.74  0.00  0.00  0.07  0.00
  WS02006115WS02006116    1.00   0.05  0.00  0.00  0.93  0.00  0.00  0.02  0.00  0.00
  WS02006116WS02004401    1.00   0.05  0.00  0.00  0.95  0.00  0.00  0.00  0.00  0.00
  WS02006228WS02006109    1.00   0.00  0.00  0.00  1.00  0.00  0.00  0.00  0.00  0.00
  WS02006229WS02006228    1.00   0.00  0.00  0.00  0.99  0.00  0.00  0.01  0.00  0.00
  WS02006230WS02006229    1.00   0.00  0.00  0.00  0.98  0.00  0.00  0.02  0.04  0.00
  WS02006231WS02006230    1.00   0.00  0.00  0.00  0.46  0.00  0.54  0.00  0.00  0.00
  WS02006232WS02006231    1.00   0.00  0.00  0.00  0.99  0.00  0.00  0.00  0.00  0.00
  WS02006234WS02006232    1.00   0.00  0.00  0.00  1.00  0.00  0.00  0.00  0.02  0.00
  WS02006235WS02006234    1.00   0.00  0.00  0.00  0.95  0.00  0.05  0.00  0.00  0.00
  WS02006238WS02006235    1.00   0.00  0.00  0.00  1.00  0.00  0.00  0.00  0.00  0.00
  WS02006239WS02006238    1.00   0.00  0.00  0.00  1.00  0.00  0.00  0.00  0.14  0.00
  WS02006240WS02006239    1.00   0.00  0.00  0.00  0.80  0.00  0.00  0.20  0.03  0.00
  WS02006242WS02006240    1.00   0.00  0.00  0.00  1.00  0.00  0.00  0.00  0.00  0.00
  WS02006243WS02006242    1.00   0.00  0.00  0.00  1.00  0.00  0.00  0.00  0.65  0.00
  WS02006245WS02006243    1.00   0.00  0.00  0.00  0.90  0.00  0.00  0.09  0.00  0.00
  WS02006247WS02006245    1.00   0.00  0.00  0.00  0.99  0.00  0.00  0.01  0.00  0.00
  WS02006248WS02006247    1.00   0.00  0.00  0.00  1.00  0.00  0.00  0.00  0.61  0.00
  WS02006249WS02006248    1.00   0.00  0.00  0.00  0.63  0.00  0.37  0.00  0.00  0.00
  WS02006251WS02006249    1.00   0.00  0.00  0.00  1.00  0.00  0.00  0.00  0.58  0.00
  WS02006252WS02006251    1.00   0.00  0.42  0.00  0.25  0.00  0.33  0.00  0.00  0.00
  WS02006253WS02006251    1.00   0.00  0.00  0.00  1.00  0.00  0.00  0.00  0.01  0.00
  WS02006256WS02006235    1.00   0.00  0.00  0.00  0.98  0.02  0.00  0.00  0.00  0.00
  WS02006280WS02006229    1.00   0.18  0.00  0.00  0.19  0.02  0.00  0.61  0.00  0.00
  WS02006284WS02006280    1.00   0.18  0.00  0.00  0.13  0.02  0.00  0.68  0.00  0.00
  WS02006287WS02006284    1.00   0.16  0.02  0.00  0.39  0.43  0.00  0.00  0.64  0.00
  WSF200WS02003060        1.00   0.00  0.14  0.00  0.45  0.41  0.00  0.00  0.66  0.00
  YS02001580YS02001583    1.00   0.35  0.37  0.00  0.29  0.00  0.00  0.00  0.65  0.00
  YS02001583YS02001586    1.00   0.36  0.30  0.00  0.34  0.00  0.00  0.00  0.65  0.00
  YS02001586YS02001590    1.00   0.17  0.00  0.00  0.57  0.03  0.00  0.23  0.36  0.00
  YS02001590YS02001593    1.00   0.17  0.00  0.00  0.13  0.00  0.70  0.00  0.00  0.00
  YS02001593YS02001596    1.00   0.17  0.00  0.00  0.15  0.01  0.00  0.66  0.02  0.00
  YS02001596YS02001600    1.00   0.17  0.00  0.00  0.26  0.03  0.00  0.54  0.05  0.00
  YS02001600YS02001601    1.00   0.17  0.00  0.00  0.82  0.00  0.00  0.00  0.62  0.00
  YS02001601YS02001602    1.00   0.17  0.00  0.00  0.83  0.00  0.00  0.00  0.00  0.00
  YS02001602YS02001605    1.00   0.17  0.00  0.00  0.83  0.00  0.00  0.00  0.00  0.00
  YS02001605YS02001607    1.00   0.17  0.00  0.00  0.83  0.00  0.00  0.00  0.00  0.00
  YS02001607YS02001610    1.00   0.17  0.00  0.00  0.82  0.00  0.00  0.00  0.01  0.00
  YS02001610YS02001613    1.00   0.17  0.00  0.00  0.83  0.00  0.00  0.00  0.00  0.00
  YS02001613YS02001616    1.00   0.17  0.00  0.00  0.83  0.00  0.00  0.00  0.00  0.00
  YS02001616YS02001619    1.00   0.17  0.00  0.00  0.83  0.00  0.00  0.00  0.00  0.00
  YS02001619YS02001622    1.00   0.17  0.00  0.00  0.83  0.00  0.00  0.00  0.34  0.00
  YS02001622YS02001625    1.00   0.17  0.00  0.00  0.83  0.00  0.00  0.00  0.04  0.00
  YS02001625YS02001629    1.00   0.17  0.02  0.00  0.19  0.00  0.62  0.00  0.00  0.00
  YS02001629YS02163301    1.00   0.18  0.00  0.00  0.81  0.00  0.00  0.00  0.00  0.00
  YS02001633YS02163601    1.00   0.00  0.00  0.00  1.00  0.00  0.00  0.00  0.15  0.00
  YS02001641YS02001644    1.00   0.00  0.00  0.00  1.00  0.00  0.00  0.00  0.00  0.00
  YS02001644YS02001647    1.00   0.00  0.19  0.00  0.81  0.00  0.00  0.00  0.00  0.00
  YS02001647YS02001649    1.00   0.00  0.19  0.00  0.41  0.40  0.00  0.00  0.58  0.00
  YS02001649YS02001757    1.00   0.00  0.00  0.00  0.57  0.43  0.00  0.00  0.52  0.00
  YS02001652YS02001649    1.00   0.00  0.00  0.00  0.98  0.02  0.00  0.00  0.77  0.00
  YS02001655YS02001652    1.00   0.00  0.00  0.00  0.21  0.02  0.00  0.77  0.06  0.00
  YS02001658YS02001655    1.00   0.00  0.18  0.00  0.46  0.36  0.00  0.00  0.74  0.00
  YS02001661YS02001658    1.00   0.18  0.00  0.00  0.31  0.52  0.00  0.00  0.73  0.00
  YS02001664YS02001661    1.00   0.17  0.00  0.00  0.65  0.18  0.00  0.00  0.86  0.00
  YS02001745YS02001748    1.00   0.00  0.00  0.00  0.06  0.01  0.00  0.93  0.03  0.00
  YS02001748YS02001751    1.00   0.00  0.00  0.00  0.72  0.28  0.00  0.00  0.78  0.00
  YS02001751YS02001754    1.00   0.00  0.00  0.00  0.15  0.01  0.00  0.83  0.04  0.00
  YS02001754YS02001757    1.00   0.00  0.00  0.00  1.00  0.00  0.00  0.00  0.86  0.00
  YS02001757CaochengTiaoxuchi    1.00   0.00  0.00  0.00  0.90  0.10  0.00  0.00  0.83  0.00
  YS02001759YS02001757    1.00   0.00  0.00  0.00  1.00  0.00  0.00  0.00  0.62  0.00
  YS02001762YS02001759    1.00   0.00  0.00  0.00  1.00  0.00  0.00  0.00  0.05  0.00
  YS02001765YS02001762    1.00   0.00  0.00  0.00  1.00  0.00  0.00  0.00  0.74  0.00
  YS02001767YS02001765    1.00   0.00  0.00  0.00  1.00  0.00  0.00  0.00  0.00  0.00
  YS02001770YS02001767    1.00   0.00  0.00  0.00  1.00  0.00  0.00  0.00  0.00  0.00
  YS02001774YS02001770    1.00   0.00  0.17  0.00  0.69  0.00  0.14  0.00  0.03  0.00
  YS02001779YS02001774    1.00   0.00  0.00  0.00  1.00  0.00  0.00  0.00  0.79  0.00
  YS02001783YS02001784    1.00   0.00  0.20  0.00  0.80  0.00  0.00  0.00  0.57  0.00
  YS02001784YS02001785    1.00   0.00  0.00  0.00  1.00  0.00  0.00  0.00  0.17  0.00
  YS02001786YS02001788    1.00   0.00  0.00  0.00  0.64  0.36  0.00  0.00  0.00  0.00
  YS02001788YS02001790    1.00   0.00  0.00  0.00  0.22  0.78  0.00  0.00  0.81  0.00
  YS02001790YS02001791    1.00   0.00  0.00  0.00  0.02  0.98  0.00  0.00  0.16  0.00
  YS02001791YS02001793    1.00   0.00  0.00  0.00  0.00  1.00  0.00  0.00  0.00  0.00
  YS02001793JiankangQianchi    1.00   0.00  0.00  0.00  0.97  0.03  0.00  0.00  0.99  0.00
  YS02001882YS02001884    1.00   0.18  0.00  0.00  0.82  0.00  0.00  0.00  0.00  0.00
  YS02001884YS02001887    1.00   0.14  0.03  0.00  0.83  0.00  0.00  0.00  0.00  0.00
  YS02001887YS02001890    1.00   0.00  0.00  0.00  0.93  0.00  0.07  0.00  0.00  0.00
  YS02001890YS02001895    1.00   0.00  0.18  0.00  0.81  0.00  0.00  0.00  0.00  0.00
  YS02001895YS02001898    1.00   0.19  0.00  0.00  0.80  0.00  0.02  0.00  0.00  0.00
  YS02001898YS02001901    1.00   0.19  0.00  0.00  0.81  0.00  0.00  0.00  0.01  0.00
  YS02001901YS02001904    1.00   0.19  0.00  0.00  0.81  0.00  0.00  0.00  0.00  0.00
  YS02001904YS02001907    1.00   0.00  0.18  0.00  0.81  0.00  0.00  0.00  0.00  0.00
  YS02001907YS02006553    1.00   0.00  0.05  0.00  0.95  0.00  0.00  0.00  0.00  0.00
  YS02001910YS02001907    1.00   0.00  0.00  0.00  0.93  0.01  0.00  0.06  0.12  0.00
  YS02001915YS02001910    1.00   0.00  0.00  0.00  0.95  0.05  0.00  0.00  0.16  0.00
  YS02001918YS02001915    1.00   0.00  0.00  0.00  0.94  0.05  0.00  0.00  0.77  0.00
  YS02001920YS02001918    1.00   0.00  0.00  0.00  1.00  0.00  0.00  0.00  0.00  0.00
  YS02001923YS02001920    1.00   0.00  0.00  0.00  1.00  0.00  0.00  0.00  0.94  0.00
  YS02001926YS02001923    1.00   0.00  0.14  0.00  0.05  0.00  0.81  0.00  0.00  0.00
  YS02001929YS02001926    1.00   0.00  0.17  0.00  0.83  0.00  0.00  0.00  0.84  0.00
  YS02006553YS02006556    1.00   0.01  0.00  0.00  0.99  0.00  0.00  0.00  0.03  0.00
  YS02006556YS02006558    1.00   0.00  0.00  0.00  1.00  0.00  0.00  0.00  0.00  0.00
  YS02006558YS02006561    1.00   0.20  0.00  0.00  0.05  0.76  0.00  0.00  0.18  0.00
  YS02006561YS02001783    1.00   0.20  0.00  0.00  0.09  0.71  0.00  0.00  0.71  0.00
  YS02163301YS02001633    1.00   0.00  0.18  0.00  0.82  0.00  0.00  0.00  0.00  0.00
  YS02163601YS02164001    1.00   0.00  0.15  0.00  0.85  0.00  0.00  0.00  0.00  0.00
  YS02164001YS02001641    1.00   0.01  0.14  0.00  0.85  0.00  0.00  0.00  0.05  0.00
  YSB1154YSB6556          1.00   0.17  0.00  0.00  0.83  0.00  0.00  0.00  0.02  0.00
  YSB1171HS02004479       1.00   0.10  0.00  0.00  0.87  0.00  0.00  0.03  0.10  0.00
  YSB1174YSB1171          1.00   0.13  0.03  0.00  0.84  0.00  0.00  0.00  0.00  0.00
  YSB6556YSB1171          1.00   0.10  0.07  0.00  0.83  0.00  0.00  0.00  0.00  0.00
  
  
  *************************
  Conduit Surcharge Summary
  *************************
  
  ----------------------------------------------------------------------------
                                                           Hours        Hours 
                         --------- Hours Full --------   Above Full   Capacity
  Conduit                Both Ends  Upstream  Dnstream   Normal Flow   Limited
  ----------------------------------------------------------------------------
  HS02004478WS02006287        0.39      0.39      0.57      0.01         0.01
  HS02004479HS02004480        0.57      0.57      0.60      0.01         0.01
  HS02004480HS02004478        0.49      0.56      0.49      1.64         0.49
  HS02004770HS02004777        0.47      0.47      0.47      0.11         0.07
  HS02004777HS02004785        0.42      0.42      0.47      0.01         0.01
  HS02004785HS02004788        0.41      0.42      0.41      1.31         0.39
  HS02004788HS02004792        0.41      0.41      0.53      0.01         0.01
  HS02004792HS02004799        0.53      0.53      0.66      0.01         0.01
  HS02004799HS02004480        0.56      0.56      0.66      0.76         0.01
  HS02004802HS02004478        0.51      0.51      0.58      0.01         0.01
  HS02004807HS02004802        0.55      0.55      0.57      0.16         0.17
  HS02004817HS02004807        0.55      0.55      1.12      0.01         0.01
  HS02004817HS02004824        0.42      0.42      1.12      0.01         0.01
  HS02004824HS02004830        0.38      0.38      0.42      0.01         0.01
  HS02004830HS02004837        0.35      0.35      0.38      0.01         0.01
  HS02004837HS02004842        0.35      0.35      0.48      0.01         0.01
  HS02004842HS02004848        0.30      0.30      0.48      0.01         0.01
  HS02004848HS02004852        0.30      0.30      0.33      0.03         0.01
  HS02004852HS02004856        0.33      0.33      0.35      0.02         0.01
  HS02004856HS02004862        0.32      0.32      0.35      0.01         0.01
  HS02004862HS02004870        0.35      0.35      0.37      0.10         0.09
  HS02004870HS02004876        0.37      0.37      0.43      0.01         0.01
  HS02004876HS02004881        0.41      0.43      0.41      1.34         0.41
  HS02004881HS02006253        0.41      0.41      1.38      0.01         0.01
  HS02004901HS02004770        0.47      0.47      0.47      0.01         0.01
  WS02003072WS02003073        0.01      0.01      0.01      2.16         0.01
  WS02004401WS02004402        1.42      1.42      1.45      1.21         1.20
  WS02004402WS02004403        1.45      1.45      1.45      1.41         1.40
  WS02004403WS02004404        1.45      1.45      1.56      0.01         0.02
  WS02004404WS02004405        1.55      1.56      1.55      3.07         1.55
  WS02004405WS02004406        1.53      1.55      1.53      1.72         1.53
  WS02004406WS02004407        0.01      0.01      1.53      0.01         0.01
  WS02004407WS02004409        0.01      0.01      0.98      0.01         0.01
  WS02004409WS02004410        0.90      0.98      0.90      1.28         0.90
  WS02004410WS02004411        0.80      0.90      0.80      1.36         0.80
  WS02004411WS02004412        0.68      0.80      0.68      1.40         0.68
  WS02004412WS02004413        0.68      0.68      1.18      0.01         0.01
  WS02004413WS02003067        0.01      0.01      1.18      0.01         0.01
  WS02006109WS02006110        1.67      1.67      2.00      1.68         0.01
  WS02006110WS02006113        1.14      1.14      1.98      0.25         0.01
  WS02006111WS02006112        1.14      1.14      2.10      0.01         0.01
  WS02006112WS02006115        1.29      1.29      1.75      0.01         0.01
  WS02006113WS02006111        1.14      1.14      1.14      1.20         1.13
  WS02006115WS02006116        1.32      1.32      1.32      1.26         1.26
  WS02006116WS02004401        1.41      1.41      1.42      1.37         1.36
  WS02006228WS02006109        1.96      2.00      1.96      2.20         1.96
  WS02006229WS02006228        1.96      1.98      1.96      2.08         1.96
  WS02006230WS02006229        2.02      2.03      2.02      3.09         0.95
  WS02006231WS02006230        1.55      1.55      1.58      2.36         0.96
  WS02006232WS02006231        1.57      1.57      1.72      0.01         0.13
  WS02006234WS02006232        1.62      1.62      1.72      0.01         0.01
  WS02006235WS02006234        1.59      1.59      1.62      2.15         0.92
  WS02006238WS02006235        1.63      1.63      1.65      0.01         0.32
  WS02006239WS02006238        1.60      1.61      1.63      0.97         0.25
  WS02006240WS02006239        1.56      1.56      1.56      0.95         0.23
  WS02006242WS02006240        1.54      1.54      1.62      1.25         0.80
  WS02006243WS02006242        1.48      1.48      1.58      0.01         0.01
  WS02006245WS02006243        1.46      1.46      1.47      0.20         0.19
  WS02006247WS02006245        1.45      1.46      1.45      1.98         0.31
  WS02006248WS02006247        1.44      1.44      1.46      0.01         0.01
  WS02006249WS02006248        1.44      1.44      1.44      0.90         0.01
  WS02006251WS02006249        1.44      1.44      1.44      1.42         1.35
  WS02006252WS02006251        1.49      1.50      1.53      0.89         0.01
  WS02006253WS02006251        1.43      1.44      1.44      0.68         0.02
  WS02006256WS02006235        2.54      2.57      7.02      0.64         0.01
  WS02006280WS02006229        0.69      0.69      0.84      0.01         0.01
  WS02006284WS02006280        0.59      0.59      0.67      0.01         0.01
  WS02006287WS02006284        0.49      0.49      0.60      0.20         0.21
  YS02001580YS02001583        0.45      0.45      0.48      0.01         0.01
  YS02001583YS02001586        0.46      0.46      0.54      0.01         0.01
  YS02001586YS02001590        0.55      0.55      0.61      0.01         0.01
  YS02001590YS02001593        0.61      0.61      0.63      0.63         0.01
  YS02001593YS02001596        0.63      0.63      0.73      0.01         0.01
  YS02001596YS02001600        0.78      0.78      0.88      0.01         0.01
  YS02001600YS02001601        0.95      0.95      1.24      0.01         0.01
  YS02001601YS02001602        1.13      1.13      1.29      0.90         0.01
  YS02001602YS02001605        1.07      1.07      1.13      2.15         0.01
  YS02001605YS02001607        1.03      1.07      1.03      1.21         1.03
  YS02001607YS02001610        0.57      0.57      0.59      0.01         0.01
  YS02001610YS02001613        0.56      0.56      0.59      0.01         0.01
  YS02001613YS02001616        0.52      0.52      0.56      0.01         0.01
  YS02001616YS02001619        0.51      0.51      0.52      0.01         0.01
  YS02001619YS02001622        0.51      0.51      0.51      0.65         0.49
  YS02001622YS02001625        0.51      0.51      0.68      0.01         0.01
  YS02001625YS02001629        0.45      0.45      0.68      0.01         0.01
  YS02001629YS02163301        0.66      0.66      0.67      0.29         0.27
  YS02001633YS02163601        0.69      0.69      0.72      0.42         0.42
  YS02001641YS02001644        0.56      0.60      0.56      1.34         0.56
  YS02001644YS02001647        0.34      0.34      0.56      0.04         0.01
  YS02001647YS02001649        0.34      0.34      0.41      0.01         0.01
  YS02001649YS02001757        0.40      0.41      0.44      0.36         0.27
  YS02001652YS02001649        0.28      0.28      0.41      0.01         0.01
  YS02001655YS02001652        0.17      0.17      0.26      0.01         0.01
  YS02001658YS02001655        0.07      0.07      0.17      0.01         0.01
  YS02001661YS02001658        0.01      0.01      0.07      0.01         0.01
  YS02001745YS02001748        0.01      0.01      0.01      0.01         0.01
  YS02001748YS02001751        0.02      0.02      0.09      0.01         0.01
  YS02001751YS02001754        0.09      0.09      0.18      0.01         0.01
  YS02001754YS02001757        0.20      0.20      0.44      0.01         0.01
  YS02001757CaochengTiaoxuchi        0.34      0.44      0.84      0.32         0.16
  YS02001759YS02001757        0.36      0.36      0.44      0.01         0.01
  YS02001762YS02001759        0.33      0.33      0.36      0.01         0.02
  YS02001765YS02001762        0.30      0.30      0.33      0.01         0.01
  YS02001767YS02001765        0.27      0.27      0.30      0.01         0.03
  YS02001770YS02001767        0.27      0.27      0.27      0.41         0.22
  YS02001774YS02001770        0.25      0.25      0.32      0.01         0.01
  YS02001779YS02001774        0.18      0.18      0.32      0.01         0.01
  YS02001783YS02001784        0.35      0.37      0.35      0.53         0.35
  YS02001784YS02001785        0.25      0.35      0.25      0.75         0.25
  YS02001786YS02001788        0.01      0.25      0.01      0.64         0.01
  YS02001790YS02001791        0.01      0.01      0.01      0.34         0.01
  YS02001793JiankangQianchi        0.01      0.01      6.59      0.01         0.01
  YS02001882YS02001884        0.32      0.32      0.33      0.01         0.01
  YS02001884YS02001887        0.36      0.36      0.37      0.01         0.01
  YS02001887YS02001890        0.38      0.38      0.39      0.01         0.01
  YS02001890YS02001895        0.31      0.31      0.41      0.01         0.01
  YS02001895YS02001898        0.31      0.31      0.31      0.01         0.01
  YS02001898YS02001901        0.31      0.31      0.35      0.01         0.01
  YS02001901YS02001904        0.34      0.34      0.35      0.01         0.01
  YS02001904YS02001907        0.34      0.34      0.62      0.01         0.01
  YS02001907YS02006553        0.76      0.76      0.83      0.01         0.01
  YS02001910YS02001907        0.40      0.40      0.60      0.01         0.01
  YS02001915YS02001910        0.32      0.32      0.40      0.01         0.01
  YS02001918YS02001915        0.24      0.24      0.32      0.01         0.01
  YS02001920YS02001918        0.24      0.24      0.25      0.01         0.01
  YS02001923YS02001920        0.20      0.20      0.25      0.01         0.01
  YS02001926YS02001923        0.01      0.01      0.02      0.01         0.01
  YS02001929YS02001926        0.01      0.01      0.02      0.01         0.01
  YS02006553YS02006556        0.50      0.50      0.62      0.01         0.01
  YS02006556YS02006558        0.56      0.56      0.64      0.01         0.01
  YS02006558YS02006561        0.27      0.48      0.27      0.71         0.27
  YS02006561YS02001783        0.21      0.21      0.37      0.01         0.01
  YS02163301YS02001633        0.67      0.67      0.71      0.01         0.01
  YS02163601YS02164001        0.61      0.61      0.72      0.20         0.01
  YS02164001YS02001641        0.60      0.61      0.60      0.69         0.52
  YSB1154YSB6556              0.63      0.63      0.78      0.01         0.01
  YSB1171HS02004479           0.52      0.52      0.78      0.01         0.01
  YSB1174YSB1171              0.70      0.70      1.04      0.01         0.01
  YSB6556YSB1171              0.63      0.63      1.19      0.01         0.01
  
  
  ***************
  Pumping Summary
  ***************
  
  ---------------------------------------------------------------------------------------------------------
                                                  Min       Avg       Max     Total     Power    % Time Off
                        Percent   Number of      Flow      Flow      Flow    Volume     Usage    Pump Curve
  Pump                 Utilized   Start-Ups       LPS       LPS       LPS  10^6 ltr     Kw-hr    Low   High
  ---------------------------------------------------------------------------------------------------------
  CC-R1                   22.10          26      0.00    683.00    683.00     4.347     76.39    0.0   52.6
  CC-R2                   16.96          25      0.00    683.00    683.00     3.337     58.03    0.0   59.9
  CC-S1                   20.91          24      0.00    200.00    200.00     1.205      8.45    0.0    0.0
  CC-S2                   19.53          33      0.00    200.00    200.00     1.125      8.07    0.0    0.0
  JK-R1                    5.60          21      0.00   1000.00   1000.00     1.613     13.61    0.0    0.0
  JK-R2                    2.23          17      0.00   1000.00   1000.00     0.641      4.98    0.0    0.0
  JK-S                    14.06          28      0.00    300.00    300.00     1.215     22.23    0.0    0.0
  XR-1                    97.91           2      0.00     95.00     95.00     2.679      9.62    0.0    0.0
  XR-2                    93.94           2      0.00     95.00     95.00     2.570      8.78    0.0    0.0
  XR-3                     0.00           1      0.00     95.00     95.00     0.000      0.00    0.0    0.0
  XR-4                     0.00           1      0.00     95.00     95.00     0.000      0.00    0.0    0.0
  

  Analysis begun on:  Thu Jun 15 19:59:39 2023
  Analysis ended on:  Thu Jun 15 19:59:48 2023
  Total elapsed time: 00:00:09