
  OWA STORM WATER MANAGEMENT MODEL - VERSION v5.1.14 (OWA 2022-07-31)
  --------------------------------------------------------------

  WARNING 04: minimum elevation drop used for Conduit WS02004404WS02004405
  WARNING 03: negative offset ignored for Link YS02001904YS02001907
  
  *********************************************************
  NOTE: The summary statistics displayed in this report are
  based on results found at every computational time step,  
  not just on results from each reporting time step.
  *********************************************************
  
  ****************
  Analysis Options
  ****************
  Flow Units ............... LPS
  Process Models:
    Rainfall/Runoff ........ YES
    RDII ................... NO
    Snowmelt ............... NO
    Groundwater ............ NO
    Flow Routing ........... YES
    Ponding Allowed ........ NO
    Water Quality .......... NO
  Infiltration Method ...... HORTON
  Flow Routing Method ...... DYNWAVE
  Surcharge Method ......... EXTRAN
  Starting Date ............ 08/28/2015 08:00:00
  Ending Date .............. 08/28/2015 16:00:00
  Antecedent Dry Days ...... 8.0
  Report Time Step ......... 00:01:00
  Wet Time Step ............ 00:01:00
  Dry Time Step ............ 00:01:00
  Routing Time Step ........ 30.00 sec
  Variable Time Step ....... YES
  Maximum Trials ........... 8
  Number of Threads ........ 1
  Head Tolerance ........... 0.001500 m
  
  
  **************************        Volume         Depth
  Runoff Quantity Continuity     hectare-m            mm
  **************************     ---------       -------
  Initial LID Storage ......         0.072         1.184
  Total Precipitation ......         3.013        49.740
  Evaporation Loss .........         0.000         0.000
  Infiltration Loss ........         0.196         3.232
  Surface Runoff ...........         2.262        37.346
  Final Storage ............         0.628        10.368
  Continuity Error (%) .....        -0.043
  
  
  **************************        Volume        Volume
  Flow Routing Continuity        hectare-m      10^6 ltr
  **************************     ---------     ---------
  Dry Weather Inflow .......         0.630         6.296
  Wet Weather Inflow .......         2.262        22.623
  Groundwater Inflow .......         0.000         0.000
  RDII Inflow ..............         0.000         0.000
  External Inflow ..........         0.105         1.045
  External Outflow .........         2.199        21.991
  Flooding Loss ............         0.792         7.921
  Evaporation Loss .........         0.000         0.000
  Exfiltration Loss ........         0.000         0.000
  Initial Stored Volume ....         0.303         3.031
  Final Stored Volume ......         0.319         3.189
  Continuity Error (%) .....        -0.325
  
  
  *************************
  Highest Continuity Errors
  *************************
  Node YS02001583 (-13.58%)
  Node YS02001884 (4.97%)
  Node WS02006256 (3.89%)
  Node WS02006252 (-1.72%)
  Node YS02001774 (1.66%)
  
  
  ***************************
  Time-Step Critical Elements
  ***************************
  Link WS02006280WS02006229 (64.67%)
  Link WS02006238WS02006235 (6.79%)
  Link WS02004404WS02004405 (6.21%)
  Link YS02001791YS02001793 (5.12%)
  Link WS02006252WS02006251 (3.86%)
  
  
  ********************************
  Highest Flow Instability Indexes
  ********************************
  Link WS02004404WS02004405 (29)
  Link WS02006113WS02006111 (27)
  Link WS02004403WS02004404 (24)
  Link WS02006238WS02006235 (21)
  Link WS02004402WS02004403 (21)
  
  
  *************************
  Routing Time Step Summary
  *************************
  Minimum Time Step           :     0.00 sec
  Average Time Step           :     2.80 sec
  Maximum Time Step           :     6.46 sec
  Percent in Steady State     :    -0.00
  Average Iterations per Step :     3.77
  Percent Not Converging      :    19.55
  
  
  ***************************
  Subcatchment Runoff Summary
  ***************************
  
  ------------------------------------------------------------------------------------------------------------------------------
                            Total      Total      Total      Total     Imperv       Perv      Total       Total     Peak  Runoff
                           Precip      Runon       Evap      Infil     Runoff     Runoff     Runoff      Runoff   Runoff   Coeff
  Subcatchment                 mm         mm         mm         mm         mm         mm         mm    10^6 ltr      LPS
  ------------------------------------------------------------------------------------------------------------------------------
  sub0                      49.74       0.00       0.00       0.99      45.01       2.49      47.50        0.04    24.86   0.955
  sub1                      49.74       0.00       0.00       1.48      38.56       3.42      41.99        0.28   146.70   0.844
  sub10                     49.74       0.00       0.00       0.95      36.14       2.28      38.43        0.42   233.93   0.773
  sub11                     49.74       0.00       0.00       0.87      33.59       2.13      35.73        0.42   246.47   0.718
  sub12                     49.74       0.00       0.00       1.53      34.15       3.72      37.88        0.33   208.99   0.761
  sub14                     49.74       0.00       0.00       0.95      31.81       2.29      34.11        0.32   189.09   0.686
  sub15                     49.74       0.00       0.00       4.19      28.60       8.42      37.01        0.64   313.14   0.744
  sub16                     49.74       0.00       0.00       4.48      27.90       9.65      37.55        0.39   212.07   0.755
  sub17                     49.74       0.00       0.00       4.79      30.79      10.11      40.90        0.35   184.00   0.822
  sub2                      49.74       0.00       0.00       6.53      28.19      10.52      38.70        0.36   145.40   0.778
  sub22                     49.74       0.00       0.00       7.37      26.70      13.34      40.04        2.53  1122.65   0.805
  sub23                     49.74       0.00       0.00       5.58      27.49      11.03      38.52        1.84   894.27   0.774
  sub3                      49.74       0.00       0.00       6.96      27.91       9.94      37.84        0.85   311.11   0.761
  sub4                      49.74       0.00       0.00       1.59      37.96       3.25      41.21        0.86   342.13   0.828
  sub5                      49.74       0.00       0.00       0.85      37.31       2.04      39.35        0.45   240.70   0.791
  sub60                     49.74       0.00       0.00       1.36      32.86       3.25      36.11        0.47   282.47   0.726
  sub61                     49.74       0.00       0.00       2.07      32.83       4.84      37.67        0.69   405.71   0.757
  sub62                     49.74       0.00       0.00       0.92      34.99       2.21      37.20        1.02   558.64   0.748
  sub63                     49.74       0.00       0.00       3.75      28.12       8.05      36.17        0.82   437.93   0.727
  sub64                     49.74       0.00       0.00       1.81      32.01       4.01      36.01        0.87   442.17   0.724
  sub65                     49.74       0.00       0.00       1.66      34.54       3.66      38.20        1.05   515.20   0.768
  sub66                     49.74       0.00       0.00       4.30      27.17       7.13      34.31        1.60   637.75   0.690
  sub67                     49.74       0.00       0.00       0.92      35.88       2.29      38.17        0.71   445.64   0.767
  sub68                     49.74       0.00       0.00       1.59      31.68       3.72      35.40        0.97   552.60   0.712
  sub69                     49.74       0.00       0.00       1.43      33.43       4.49      37.91        1.40   678.44   0.762
  sub7                      49.74       0.00       0.00       1.01      34.10       2.46      36.56        0.12    74.47   0.735
  sub70                     49.74       0.00       0.00       4.67      26.77       9.18      35.95        1.04   373.93   0.723
  sub71                     49.74       0.00       0.00       0.85      31.78       2.00      33.78        0.88   454.30   0.679
  sub72                     49.74       0.00       0.00       0.81      34.32       1.86      36.18        0.50   229.54   0.727
  sub8                      49.74       0.00       0.00       0.98      33.14       2.39      35.53        0.23   133.10   0.714
  sub9                      49.74       0.00       0.00       0.95      32.12       2.31      34.44        0.17    96.93   0.692
  

  ***********************
  LID Performance Summary
  ***********************

  --------------------------------------------------------------------------------------------------------------------
                                         Total      Evap     Infil   Surface    Drain    Initial     Final  Continuity
                                        Inflow      Loss      Loss   Outflow   Outflow   Storage   Storage       Error
  Subcatchment      LID Control             mm        mm        mm        mm        mm        mm        mm           %
  --------------------------------------------------------------------------------------------------------------------
  sub1              GreenRoof            49.74      0.00      0.00      0.00      0.00      7.05     56.86       -0.13
  sub10             GreenRoof            49.74      0.00      0.00      0.00      0.00      7.05     56.86       -0.13
  sub11             GreenRoof            49.74      0.00      0.00      0.00      0.00      7.05     56.86       -0.13
  sub12             GreenRoof            49.74      0.00      0.00      0.00      0.00      7.05     56.86       -0.13
  sub14             GreenRoof            49.74      0.00      0.00      0.00      0.00      7.05     56.86       -0.13
  sub15             GreenRoof            49.74      0.00      0.00      0.00      0.00      7.05     56.86       -0.13
  sub16             GreenRoof            49.74      0.00      0.00      0.00      0.00      7.05     56.86       -0.13
  sub17             GreenRoof            49.74      0.00      0.00      0.00      0.00      7.05     56.86       -0.13
  sub2              GreenRoof            49.74      0.00      0.00      0.00      0.00      7.05     56.86       -0.13
  sub22             GreenRoof            49.74      0.00      0.00      0.00      0.00      7.05     56.86       -0.13
  sub23             GreenRoof            49.74      0.00      0.00      0.00      0.00      7.05     56.86       -0.13
  sub3              GreenRoof            49.74      0.00      0.00      0.00      0.00      7.05     56.86       -0.13
  sub4              GreenRoof            49.74      0.00      0.00      0.00      0.00      7.05     56.86       -0.13
  sub5              GreenRoof            49.74      0.00      0.00      0.00      0.00      7.05     56.86       -0.13
  sub60             GreenRoof            49.74      0.00      0.00      0.00      0.00      7.05     56.86       -0.13
  sub61             GreenRoof            49.74      0.00      0.00      0.00      0.00      7.05     56.86       -0.13
  sub62             GreenRoof            49.74      0.00      0.00      0.00      0.00      7.05     56.86       -0.13
  sub63             GreenRoof            49.74      0.00      0.00      0.00      0.00      7.05     56.86       -0.13
  sub64             GreenRoof            49.74      0.00      0.00      0.00      0.00      7.05     56.86       -0.13
  sub65             GreenRoof            49.74      0.00      0.00      0.00      0.00      7.05     56.86       -0.13
  sub66             GreenRoof            49.74      0.00      0.00      0.00      0.00      7.05     56.86       -0.13
  sub67             GreenRoof            49.74      0.00      0.00      0.00      0.00      7.05     56.86       -0.13
  sub68             GreenRoof            49.74      0.00      0.00      0.00      0.00      7.05     56.86       -0.13
  sub69             GreenRoof            49.74      0.00      0.00      0.00      0.00      7.05     56.86       -0.13
  sub7              GreenRoof            49.74      0.00      0.00      0.00      0.00      7.05     56.86       -0.13
  sub70             GreenRoof            49.74      0.00      0.00      0.00      0.00      7.05     56.86       -0.13
  sub71             GreenRoof            49.74      0.00      0.00      0.00      0.00      7.05     56.86       -0.13
  sub72             GreenRoof            49.74      0.00      0.00      0.00      0.00      7.05     56.86       -0.13
  sub8              GreenRoof            49.74      0.00      0.00      0.00      0.00      7.05     56.86       -0.13
  sub9              GreenRoof            49.74      0.00      0.00      0.00      0.00      7.05     56.86       -0.13
  
  ******************
  Node Depth Summary
  ******************
  
  ---------------------------------------------------------------------------------
                                 Average  Maximum  Maximum  Time of Max    Reported
                                   Depth    Depth      HGL   Occurrence   Max Depth
  Node                 Type       Meters   Meters   Meters  days hr:min      Meters
  ---------------------------------------------------------------------------------
  HS02004478           JUNCTION     0.23     1.60    10.83     0  01:40        1.44
  HS02004479           JUNCTION     0.32     1.71    10.91     0  01:40        1.64
  HS02004480           JUNCTION     0.28     1.69    10.93     0  01:40        1.59
  HS02004770           JUNCTION     0.29     1.42    11.25     0  01:36        1.42
  HS02004777           JUNCTION     0.31     1.48    11.28     0  01:36        1.48
  HS02004785           JUNCTION     0.20     1.49    11.39     0  01:36        1.40
  HS02004788           JUNCTION     0.16     1.42    11.32     0  01:36        1.42
  HS02004792           JUNCTION     0.23     1.60    11.12     0  01:35        1.60
  HS02004799           JUNCTION     0.35     1.76    10.97     0  01:40        1.74
  HS02004802           JUNCTION     0.33     1.81    10.94     0  01:40        1.63
  HS02004807           JUNCTION     0.30     1.92    11.09     0  01:40        1.86
  HS02004817           JUNCTION     0.60     2.44    11.29     0  01:40        2.44
  HS02004824           JUNCTION     0.16     2.01    11.41     0  01:40        2.01
  HS02004830           JUNCTION     0.16     2.03    11.50     0  01:40        2.03
  HS02004837           JUNCTION     0.13     2.04    11.62     0  01:40        2.04
  HS02004842           JUNCTION     0.42     2.22    11.49     0  01:40        2.22
  HS02004848           JUNCTION     0.10     2.07    11.67     0  01:40        2.07
  HS02004852           JUNCTION     0.11     2.12    11.63     0  01:40        2.12
  HS02004856           JUNCTION     0.17     2.07    11.50     0  01:40        2.07
  HS02004862           JUNCTION     0.12     2.00    11.38     0  01:40        2.00
  HS02004870           JUNCTION     0.11     2.10    11.39     0  01:40        2.10
  HS02004876           JUNCTION     0.17     2.26    11.29     0  01:40        2.26
  HS02004881           JUNCTION     0.11     2.01    11.03     0  01:40        2.01
  HS02004901           JUNCTION     0.30     1.42    11.24     0  01:36        1.42
  WS02001211           JUNCTION     0.64     0.86     5.70     0  01:44        0.86
  WS02001212           JUNCTION     0.38     0.63     5.70     0  01:43        0.58
  WS02001213           JUNCTION     0.60     0.95     5.71     0  01:43        0.95
  WS02003059           JUNCTION     0.66     0.97     5.66     0  01:45        0.94
  WS02003060           JUNCTION     0.38     0.69     5.62     0  01:46        0.69
  WS02003066           JUNCTION     0.23     0.46     6.01     0  01:38        0.45
  WS02003067           JUNCTION     0.54     0.95     6.27     0  01:37        0.95
  WS02003069           JUNCTION     0.43     0.77     5.36     0  01:46        0.77
  WS02003072           JUNCTION     0.49     0.81     5.18     0  01:45        0.81
  WS02003073           JUNCTION     0.29     0.51     4.58     0  01:46        0.51
  WS02004138           JUNCTION     0.13     0.14     7.39     0  00:29        0.14
  WS02004139           JUNCTION     0.58     0.77     5.68     0  01:41        0.77
  WS02004401           JUNCTION     0.77     2.12     8.12     0  01:35        1.76
  WS02004402           JUNCTION     0.78     2.12     8.08     0  01:35        1.71
  WS02004403           JUNCTION     0.79     2.08     8.01     0  01:35        1.64
  WS02004404           JUNCTION     0.85     2.12     7.97     0  01:35        1.65
  WS02004405           JUNCTION     0.84     2.02     7.87     0  01:35        1.61
  WS02004406           JUNCTION     0.82     1.80     7.63     0  01:35        1.51
  WS02004407           JUNCTION     0.26     0.88     7.19     0  01:39        0.88
  WS02004409           JUNCTION     0.53     1.35     7.12     0  01:39        1.34
  WS02004410           JUNCTION     0.53     1.29     7.01     0  01:37        1.26
  WS02004411           JUNCTION     0.54     1.23     6.91     0  01:37        1.17
  WS02004412           JUNCTION     0.54     1.40     7.04     0  01:37        1.08
  WS02004413           JUNCTION     0.68     1.52     6.99     0  01:37        1.13
  WS02006109           JUNCTION     0.98     2.64     9.26     0  01:35        2.64
  WS02006110           JUNCTION     0.91     2.76     9.34     0  01:35        2.35
  WS02006111           JUNCTION     0.43     2.54     9.25     0  01:35        1.63
  WS02006112           JUNCTION     0.98     2.68     8.56     0  01:35        2.23
  WS02006113           JUNCTION     0.50     2.73     9.62     0  01:35        1.74
  WS02006115           JUNCTION     0.69     2.21     8.35     0  01:35        1.84
  WS02006116           JUNCTION     0.76     2.15     8.19     0  01:35        1.84
  WS02006228           JUNCTION     1.04     3.03     9.68     0  01:36        3.03
  WS02006229           JUNCTION     1.05     3.25     9.94     0  01:36        3.25
  WS02006230           JUNCTION     0.97     2.65     9.39     0  01:36        2.65
  WS02006231           JUNCTION     0.68     2.19     9.31     0  01:36        2.19
  WS02006232           JUNCTION     0.76     2.18     9.22     0  01:36        2.18
  WS02006234           JUNCTION     0.64     1.96     9.12     0  01:36        1.96
  WS02006235           JUNCTION     0.65     2.00     9.16     0  02:25        1.93
  WS02006238           JUNCTION     0.67     2.15     9.29     0  02:35        1.93
  WS02006239           JUNCTION     0.60     2.03     9.24     0  02:35        1.80
  WS02006240           JUNCTION     0.56     2.10     9.39     0  02:50        1.64
  WS02006242           JUNCTION     0.59     1.55     8.82     0  00:05        1.55
  WS02006243           JUNCTION     0.48     1.48     8.90     0  00:05        1.38
  WS02006245           JUNCTION     0.46     1.56     9.04     0  02:45        1.28
  WS02006247           JUNCTION     0.46     1.47     8.97     0  01:35        1.23
  WS02006248           JUNCTION     0.41     1.10     8.69     0  00:05        1.10
  WS02006249           JUNCTION     0.43     1.09     8.69     0  00:05        1.09
  WS02006251           JUNCTION     0.49     2.21     9.88     0  01:39        2.21
  WS02006252           JUNCTION     0.28     1.50     9.74     0  00:00        1.50
  WS02006253           JUNCTION     0.56     3.52    11.16     0  03:00        3.19
  WS02006256           JUNCTION     0.90     2.35     9.28     0  00:00        2.35
  WS02006280           JUNCTION     0.31     1.83    10.10     0  01:36        1.83
  WS02006284           JUNCTION     0.57     2.08    10.48     0  01:36        1.84
  WS02006287           JUNCTION     0.31     1.76    10.72     0  01:40        1.61
  WSF200               JUNCTION     0.22     0.55     5.78     0  01:38        0.51
  YS02001580           JUNCTION     0.07     1.05     9.59     0  01:37        0.77
  YS02001583           JUNCTION     0.11     1.14     9.64     0  01:37        0.82
  YS02001586           JUNCTION     0.18     1.13     9.30     0  01:36        1.13
  YS02001590           JUNCTION     0.28     1.40     9.26     0  01:36        1.37
  YS02001593           JUNCTION     0.21     1.46     9.32     0  01:36        1.28
  YS02001596           JUNCTION     0.29     1.80     9.22     0  01:36        1.65
  YS02001600           JUNCTION     0.37     1.87     9.00     0  01:36        1.86
  YS02001601           JUNCTION     0.56     2.06     8.90     0  01:36        2.06
  YS02001602           JUNCTION     0.47     1.87     8.77     0  01:37        1.87
  YS02001605           JUNCTION     0.43     1.78     8.68     0  01:37        1.77
  YS02001607           JUNCTION     0.42     1.68     8.53     0  01:37        1.64
  YS02001610           JUNCTION     0.46     1.68     8.48     0  01:37        1.68
  YS02001613           JUNCTION     0.42     1.70     8.54     0  01:37        1.67
  YS02001616           JUNCTION     0.35     1.61     8.52     0  01:37        1.61
  YS02001619           JUNCTION     0.32     1.61     8.54     0  01:37        1.61
  YS02001622           JUNCTION     0.31     1.58     8.48     0  01:38        1.58
  YS02001625           JUNCTION     0.57     1.78     8.38     0  01:37        1.78
  YS02001629           JUNCTION     0.44     1.85     8.40     0  01:37        1.85
  YS02001633           JUNCTION     0.51     2.03     8.48     0  01:38        2.03
  YS02001641           JUNCTION     0.48     1.85     8.29     0  01:42        1.82
  YS02001644           JUNCTION     0.47     1.82     8.25     0  01:42        1.82
  YS02001647           JUNCTION     0.24     1.56     8.17     0  01:42        1.56
  YS02001649           JUNCTION     0.27     1.65     8.04     0  01:42        1.65
  YS02001652           JUNCTION     0.16     1.38     7.98     0  01:40        1.26
  YS02001655           JUNCTION     0.10     1.25     8.10     0  01:42        0.98
  YS02001658           JUNCTION     0.08     0.72     7.86     0  01:41        0.72
  YS02001661           JUNCTION     0.13     0.38     7.79     0  01:42        0.37
  YS02001664           JUNCTION     0.06     0.25     8.18     0  01:40        0.25
  YS02001745           JUNCTION     0.05     0.22     7.74     0  01:39        0.22
  YS02001748           JUNCTION     0.06     0.62     7.69     0  01:42        0.57
  YS02001751           JUNCTION     0.07     0.83     7.71     0  01:41        0.81
  YS02001754           JUNCTION     0.11     1.33     7.94     0  01:42        1.07
  YS02001757           JUNCTION     0.26     1.67     7.93     0  01:42        1.67
  YS02001759           JUNCTION     0.21     1.72     8.08     0  01:42        1.72
  YS02001762           JUNCTION     0.20     1.67     8.07     0  01:42        1.67
  YS02001765           JUNCTION     0.18     1.63     8.08     0  01:40        1.51
  YS02001767           JUNCTION     0.18     1.67     8.15     0  01:40        1.25
  YS02001770           JUNCTION     0.19     1.76     8.25     0  01:40        1.22
  YS02001774           JUNCTION     0.26     1.88     8.30     0  01:40        1.29
  YS02001779           JUNCTION     0.09     1.68     8.37     0  01:40        1.04
  YS02001783           JUNCTION     0.24     1.23     7.37     0  01:40        1.21
  YS02001784           JUNCTION     0.26     1.13     7.20     0  01:40        1.09
  YS02001786           JUNCTION     0.22     0.88     6.91     0  01:40        0.86
  YS02001788           JUNCTION     0.16     0.62     6.59     0  01:41        0.62
  YS02001790           JUNCTION     0.19     0.72     6.36     0  01:42        0.71
  YS02001791           JUNCTION     0.12     0.43     5.90     0  01:46        0.42
  YS02001793           JUNCTION     0.06     0.28     5.11     0  01:44        0.26
  YS02001882           JUNCTION     0.29     1.63     8.35     0  01:40        1.63
  YS02001884           JUNCTION     0.38     1.73     8.34     0  01:40        1.72
  YS02001887           JUNCTION     0.46     1.80     8.34     0  01:40        1.78
  YS02001890           JUNCTION     0.49     1.81     8.32     0  01:40        1.78
  YS02001895           JUNCTION     0.26     1.56     8.31     0  01:40        1.54
  YS02001898           JUNCTION     0.27     1.56     8.30     0  01:40        1.54
  YS02001901           JUNCTION     0.38     1.68     8.29     0  01:40        1.67
  YS02001904           JUNCTION     0.36     1.64     8.27     0  01:40        1.63
  YS02001907           JUNCTION     0.68     1.96     8.25     0  01:40        1.96
  YS02001910           JUNCTION     0.48     1.98     8.49     0  01:40        1.78
  YS02001915           JUNCTION     0.29     1.93     8.65     0  01:40        1.60
  YS02001918           JUNCTION     0.14     1.81     8.88     0  01:40        1.32
  YS02001920           JUNCTION     0.22     2.10     9.11     0  01:40        1.47
  YS02001923           JUNCTION     0.10     2.01     9.27     0  01:40        1.36
  YS02001926           JUNCTION     0.14     1.90     9.35     0  01:40        1.21
  YS02001929           JUNCTION     0.07     1.78     9.47     0  01:40        1.03
  YS02006553           JUNCTION     0.68     1.96     8.25     0  01:40        1.95
  YS02006556           JUNCTION     0.65     1.93     8.24     0  01:40        1.92
  YS02006558           JUNCTION     0.70     1.96     8.23     0  01:40        1.93
  YS02006561           JUNCTION     0.14     0.90     7.56     0  01:40        0.86
  YS02163301           JUNCTION     0.46     1.99     8.50     0  01:37        1.95
  YS02163601           JUNCTION     0.54     1.96     8.36     0  01:42        1.94
  YS02164001           JUNCTION     0.47     1.86     8.32     0  01:42        1.81
  YSB1154              JUNCTION     0.45     1.99    11.05     0  01:36        1.94
  YSB1171              JUNCTION     0.60     1.95    10.85     0  01:36        1.95
  YSB1174              JUNCTION     0.41     1.83    10.94     0  01:36        1.76
  YSB6556              JUNCTION     0.35     1.80    10.97     0  01:36        1.77
  CC-1                 OUTFALL      0.00     0.00     0.00     0  00:00        0.00
  CC-2                 OUTFALL      0.00     0.00     0.00     0  00:00        0.00
  JK-1                 OUTFALL      0.00     0.00     0.00     0  00:00        0.00
  JK-2                 OUTFALL      0.00     0.00     0.00     0  00:00        0.00
  WSC                  OUTFALL      0.29     0.51     1.18     0  01:46        0.51
  CC-storage           STORAGE      0.52     0.82     6.32     0  01:50        0.82
  JK-storage           STORAGE      1.36     4.22     5.02     0  01:59        4.20
  XR-storage           STORAGE      7.85     9.26     7.26     0  08:00        9.26
  
  
  *******************
  Node Inflow Summary
  *******************
  
  -------------------------------------------------------------------------------------------------
                                  Maximum  Maximum                  Lateral       Total        Flow
                                  Lateral    Total  Time of Max      Inflow      Inflow     Balance
                                   Inflow   Inflow   Occurrence      Volume      Volume       Error
  Node                 Type           LPS      LPS  days hr:min    10^6 ltr    10^6 ltr     Percent
  -------------------------------------------------------------------------------------------------
  HS02004478           JUNCTION      0.00  2203.09     0  01:41           0        7.21      -0.011
  HS02004479           JUNCTION      0.00   450.32     0  01:38           0       0.776       0.131
  HS02004480           JUNCTION      0.00  2205.73     0  01:37           0        5.79       0.040
  HS02004770           JUNCTION    894.27   908.02     0  01:37        1.84        2.07       0.132
  HS02004777           JUNCTION      0.03   914.86     0  01:36    0.000864        1.75       0.293
  HS02004785           JUNCTION      0.15   920.40     0  01:36     0.00432        1.74       0.024
  HS02004788           JUNCTION    314.81   913.08     0  01:36       0.685        2.43       0.012
  HS02004792           JUNCTION   1122.93  1811.78     0  01:40        2.54        4.96       0.004
  HS02004799           JUNCTION    189.09  1786.99     0  01:37       0.325        5.03       0.056
  HS02004802           JUNCTION      0.00   482.83     0  01:41           0        1.45       0.273
  HS02004807           JUNCTION    246.47   515.14     0  01:37       0.415         1.5       0.285
  HS02004817           JUNCTION      0.60   508.31     0  01:37      0.0173        1.14       1.504
  HS02004824           JUNCTION    342.18   763.17     0  01:37       0.861        1.41       0.030
  HS02004830           JUNCTION      0.15   761.20     0  01:37     0.00432       0.836       0.162
  HS02004837           JUNCTION    240.28  1019.24     0  01:37       0.607        1.12       0.107
  HS02004842           JUNCTION      0.00   954.68     0  01:38           0       0.793       1.611
  HS02004848           JUNCTION    311.11  1202.66     0  01:38       0.852        1.47       0.007
  HS02004852           JUNCTION      0.00  1157.89     0  01:38           0        1.31       0.040
  HS02004856           JUNCTION     96.93  1181.29     0  01:39       0.166        1.47       0.073
  HS02004862           JUNCTION    145.60  1284.73     0  01:39       0.366        1.84      -0.009
  HS02004870           JUNCTION    133.10  1417.26     0  01:39       0.227        2.07      -0.015
  HS02004876           JUNCTION    146.70  1557.29     0  01:39       0.279        2.35       0.037
  HS02004881           JUNCTION     74.47  1507.17     0  01:39       0.123        2.49       0.027
  HS02004901           JUNCTION    212.07   428.05     0  01:44       0.393       0.547       0.319
  WS02001211           JUNCTION      7.35   349.41     0  01:42       0.212        5.45       0.608
  WS02001212           JUNCTION      0.00   411.95     0  01:39           0        5.42       0.290
  WS02001213           JUNCTION      0.00   347.06     0  01:39           0        5.42       0.323
  WS02003059           JUNCTION      0.00   420.39     0  01:38           0        5.42       0.587
  WS02003060           JUNCTION     16.53  1534.69     0  01:45       0.476        12.8       0.115
  WS02003066           JUNCTION      0.00  1282.27     0  01:40           0        6.91       0.021
  WS02003067           JUNCTION      0.00  1266.04     0  01:40           0        6.91       0.063
  WS02003069           JUNCTION      0.32  1495.14     0  01:46     0.00922        12.7       0.122
  WS02003072           JUNCTION      0.00  1486.49     0  01:46           0        12.7       0.165
  WS02003073           JUNCTION      1.82  1490.81     0  01:45      0.0524        12.7       0.169
  WS02004138           JUNCTION      0.00   380.00     0  00:00           0        5.25       0.054
  WS02004139           JUNCTION      0.32   302.35     0  01:41     0.00924        5.26       0.508
  WS02004401           JUNCTION      0.00  1299.04     0  01:38           0        7.02       0.149
  WS02004402           JUNCTION      0.00  1300.45     0  01:38           0        7.01       0.151
  WS02004403           JUNCTION      0.00  1302.18     0  01:38           0           7       0.148
  WS02004404           JUNCTION      0.16  1304.21     0  01:38     0.00467        6.99       0.124
  WS02004405           JUNCTION      0.04  1308.98     0  01:38      0.0011        6.98       0.185
  WS02004406           JUNCTION      0.00  1311.52     0  01:38           0        6.97       0.305
  WS02004407           JUNCTION      0.00  1312.28     0  01:38           0        6.95       0.023
  WS02004409           JUNCTION      0.00  1277.86     0  01:37           0        6.95       0.046
  WS02004410           JUNCTION      0.00  1266.18     0  01:40           0        6.94       0.068
  WS02004411           JUNCTION      0.00  1265.87     0  01:40           0        6.94       0.089
  WS02004412           JUNCTION      0.00  1265.99     0  01:40           0        6.93       0.114
  WS02004413           JUNCTION      0.00  1266.01     0  01:40           0        6.93       0.191
  WS02006109           JUNCTION      1.23  1239.74     0  01:41      0.0354         6.8       0.152
  WS02006110           JUNCTION      0.00  1173.16     0  01:35           0         6.7       0.106
  WS02006111           JUNCTION      0.00  1124.07     0  01:38           0        6.69       0.012
  WS02006112           JUNCTION    184.00  1299.89     0  01:38       0.351        7.04       0.269
  WS02006113           JUNCTION      0.00  1173.07     0  01:35           0         6.7       0.032
  WS02006115           JUNCTION      0.00  1298.93     0  01:38           0        7.03       0.094
  WS02006116           JUNCTION      0.00  1298.24     0  01:38           0        7.02       0.035
  WS02006228           JUNCTION      0.00  1239.51     0  01:41           0        6.77       0.077
  WS02006229           JUNCTION      0.00  2206.03     0  01:41           0         8.5       0.075
  WS02006230           JUNCTION     10.28   978.27     0  01:40       0.296        3.07       0.274
  WS02006231           JUNCTION      0.00   453.27     0  01:41           0        2.17      -0.180
  WS02006232           JUNCTION      0.00   453.42     0  01:41           0        2.15       0.215
  WS02006234           JUNCTION      0.00   453.21     0  01:42           0        2.12      -0.192
  WS02006235           JUNCTION      0.00   453.68     0  00:06           0        2.03       0.113
  WS02006238           JUNCTION      0.00   461.65     0  00:06           0        1.98      -0.177
  WS02006239           JUNCTION      0.00   488.54     0  00:06           0        1.96      -0.218
  WS02006240           JUNCTION      0.00   568.63     0  00:06           0        1.94      -0.076
  WS02006242           JUNCTION      0.00   620.39     0  00:05           0        1.94      -0.075
  WS02006243           JUNCTION      0.00   663.71     0  00:05           0        1.65      -0.515
  WS02006245           JUNCTION      0.00   668.41     0  00:05           0        1.66       0.825
  WS02006247           JUNCTION      0.00   668.71     0  00:05           0        1.65      -0.279
  WS02006248           JUNCTION      0.00   689.77     0  01:35           0        1.85      -0.414
  WS02006249           JUNCTION      0.00  1326.53     0  01:40           0        3.56       0.295
  WS02006251           JUNCTION      0.08  1425.94     0  01:40     0.00222        3.72      -0.118
  WS02006252           JUNCTION      0.00  2000.00     0  01:25           0        2.43      -1.693
  WS02006253           JUNCTION     24.86  1424.64     0  01:40      0.0385        2.67      -0.215
  WS02006256           JUNCTION      0.00  1500.00     0  00:20           0       0.564       4.052
  WS02006280           JUNCTION      0.00  2204.31     0  01:41           0        7.19      -0.020
  WS02006284           JUNCTION      0.10  2204.33     0  01:41     0.00275        7.19       0.007
  WS02006287           JUNCTION      0.00  2203.78     0  01:41           0        7.19       0.031
  WSF200               JUNCTION      0.00  1278.49     0  01:40           0        6.91       0.011
  YS02001580           JUNCTION      0.00   219.12     0  01:37           0     0.00471       2.133
  YS02001583           JUNCTION      0.00   239.26     0  01:37           0      0.0147     -11.956
  YS02001586           JUNCTION    373.93   373.93     0  01:43        1.04        1.05       0.157
  YS02001590           JUNCTION      0.00   317.99     0  01:42           0        1.01      -0.037
  YS02001593           JUNCTION      0.00   317.90     0  01:43           0        1.01       0.019
  YS02001596           JUNCTION      0.00   317.90     0  01:49           0        1.01      -0.001
  YS02001600           JUNCTION      0.00   317.94     0  01:45           0        1.01       0.017
  YS02001601           JUNCTION    678.44   996.06     0  01:41         1.4        2.41       0.035
  YS02001602           JUNCTION      0.00   587.41     0  01:37           0         1.9       0.021
  YS02001605           JUNCTION      0.00   587.30     0  01:37           0        1.85       0.023
  YS02001607           JUNCTION      0.00   586.91     0  01:37           0        1.85       0.100
  YS02001610           JUNCTION      0.00   557.69     0  01:37           0        1.85       0.120
  YS02001613           JUNCTION      0.00   527.91     0  01:37           0        1.77       0.089
  YS02001616           JUNCTION      0.00   513.86     0  02:01           0        1.77       0.015
  YS02001619           JUNCTION    637.75   920.83     0  01:39         1.6        3.37      -0.005
  YS02001622           JUNCTION      0.00   920.32     0  01:39           0        3.37       0.003
  YS02001625           JUNCTION      0.00   919.75     0  01:39           0        3.37       0.264
  YS02001629           JUNCTION      0.00   918.96     0  01:39           0        3.29      -0.003
  YS02001633           JUNCTION    515.40  1417.16     0  01:39        1.06        4.35       0.081
  YS02001641           JUNCTION      0.00  1417.67     0  01:39           0        4.35       0.063
  YS02001644           JUNCTION    442.21  1852.67     0  01:39       0.866        5.21       0.062
  YS02001647           JUNCTION      0.00  1852.83     0  01:39           0         5.2       0.005
  YS02001649           JUNCTION      0.00  2206.83     0  01:39           0        6.02       0.003
  YS02001652           JUNCTION      0.00   483.88     0  01:40           0       0.824      -0.211
  YS02001655           JUNCTION      0.15   519.09     0  01:42     0.00443       0.825       0.147
  YS02001658           JUNCTION      0.00   453.81     0  01:41           0       0.821      -0.001
  YS02001661           JUNCTION      0.00   437.91     0  01:40           0       0.821       0.037
  YS02001664           JUNCTION    437.93   437.93     0  01:40       0.821       0.821      -0.007
  YS02001745           JUNCTION    282.47   282.47     0  01:39       0.475       0.475       0.141
  YS02001748           JUNCTION      0.04   282.29     0  01:39      0.0013       0.475      -0.185
  YS02001751           JUNCTION      0.01   426.75     0  01:41    0.000317       0.478       0.256
  YS02001754           JUNCTION      0.26   398.32     0  01:41     0.00749       0.485      -0.398
  YS02001757           JUNCTION      0.00  3049.43     0  01:43           0        8.24       0.018
  YS02001759           JUNCTION    405.75  1047.03     0  01:40       0.692        1.73      -0.013
  YS02001762           JUNCTION      0.00   649.60     0  01:40           0        1.04      -0.002
  YS02001765           JUNCTION      0.00   637.80     0  01:40           0        1.04       0.019
  YS02001767           JUNCTION      0.54   630.81     0  01:41      0.0154        1.04       0.002
  YS02001770           JUNCTION    558.79   635.84     0  01:41        1.02        1.07       0.002
  YS02001774           JUNCTION      0.00   248.35     0  01:40           0      0.0628       1.693
  YS02001779           JUNCTION      0.01   252.42     0  01:40    0.000144      0.0189      -2.417
  YS02001783           JUNCTION      0.00  1145.39     0  01:41           0        2.99       0.007
  YS02001784           JUNCTION      1.06  1146.81     0  01:41      0.0305        3.02       0.015
  YS02001786           JUNCTION      0.06  1146.55     0  01:40     0.00162        3.03       0.021
  YS02001788           JUNCTION      0.07  1147.70     0  01:40     0.00204        3.03       0.010
  YS02001790           JUNCTION      0.15  1161.74     0  01:41     0.00446        3.03       0.025
  YS02001791           JUNCTION      0.00  1266.72     0  01:42           0        3.03      -0.017
  YS02001793           JUNCTION      0.00  1211.11     0  01:47           0        3.03       0.007
  YS02001882           JUNCTION      0.00    77.85     0  01:38           0      0.0126       4.918
  YS02001884           JUNCTION      0.00   120.37     0  01:38           0      0.0482       5.228
  YS02001887           JUNCTION    446.09   458.86     0  01:38       0.723       0.756       0.588
  YS02001890           JUNCTION      0.00   466.11     0  01:38           0       0.715       0.711
  YS02001895           JUNCTION      0.00   472.93     0  01:38           0        0.71       0.206
  YS02001898           JUNCTION      0.00   481.49     0  01:39           0       0.709       0.001
  YS02001901           JUNCTION      0.00   501.01     0  01:39           0       0.712       0.455
  YS02001904           JUNCTION      0.00   504.97     0  01:39           0       0.719       0.386
  YS02001907           JUNCTION      0.00  1290.07     0  01:41           0        2.18       0.828
  YS02001910           JUNCTION      0.00   900.71     0  01:41           0        1.46       0.496
  YS02001915           JUNCTION    454.32   899.84     0  01:41       0.884        1.51       0.102
  YS02001918           JUNCTION      0.00   449.63     0  01:41           0        0.65       0.050
  YS02001920           JUNCTION      2.87   448.87     0  01:41      0.0827       0.628       0.137
  YS02001923           JUNCTION      0.04   433.06     0  01:40     0.00109       0.531      -0.219
  YS02001926           JUNCTION      0.05   720.52     0  01:40      0.0015       0.513       0.025
  YS02001929           JUNCTION    229.54   442.27     0  01:40       0.497       0.501      -0.104
  YS02006553           JUNCTION      0.00   784.69     0  01:49           0        2.05       0.581
  YS02006556           JUNCTION      0.00   784.39     0  01:49           0        2.06       0.387
  YS02006558           JUNCTION    553.48  1147.64     0  01:41           1        3.03       0.119
  YS02006561           JUNCTION      0.00  1146.36     0  01:39           0        2.99      -0.003
  YS02163301           JUNCTION      0.00   916.83     0  01:39           0         3.3       0.041
  YS02163601           JUNCTION      0.11  1417.68     0  01:39     0.00317        4.35       0.109
  YS02164001           JUNCTION      0.00  1417.76     0  01:39           0        4.35       0.051
  YSB1154              JUNCTION    240.70   240.70     0  01:40       0.446       0.447       0.328
  YSB1171              JUNCTION      0.00   448.61     0  01:38           0       0.784       0.814
  YSB1174              JUNCTION    208.99   208.99     0  01:38       0.331       0.332       0.391
  YSB6556              JUNCTION      0.00   240.78     0  01:39           0       0.447       0.291
  CC-1                 OUTFALL       0.00  3415.00     0  00:05           0        1.09       0.000
  CC-2                 OUTFALL       0.00  3415.00     0  00:05           0        5.61       0.000
  JK-1                 OUTFALL       0.00  5000.00     0  01:35           0        1.29       0.000
  JK-2                 OUTFALL       0.00  5000.00     0  01:35           0        1.29       0.000
  WSC                  OUTFALL       0.00  1491.27     0  01:46           0        12.7       0.000
  CC-storage           STORAGE       0.00  3048.56     0  01:43           0        10.5      -0.191
  JK-storage           STORAGE       0.00  1296.86     0  01:45           0        3.18      -0.607
  XR-storage           STORAGE     200.00   200.00     0  00:00        5.76        6.36       0.001
  
  
  **********************
  Node Surcharge Summary
  **********************
  
  Surcharging occurs when water rises above the top of the highest conduit.
  ---------------------------------------------------------------------
                                               Max. Height   Min. Depth
                                   Hours       Above Crown    Below Rim
  Node                 Type      Surcharged         Meters       Meters
  ---------------------------------------------------------------------
  HS02004478           JUNCTION        0.34          0.681        0.259
  HS02004479           JUNCTION        0.45          0.909        0.141
  HS02004480           JUNCTION        0.50          0.978        0.122
  HS02004770           JUNCTION        0.42          0.720        0.000
  HS02004777           JUNCTION        0.42          0.780        0.000
  HS02004785           JUNCTION        0.37          0.790        0.000
  HS02004788           JUNCTION        0.36          0.720        0.000
  HS02004792           JUNCTION        0.47          0.900        0.000
  HS02004799           JUNCTION        0.57          1.060        0.000
  HS02004802           JUNCTION        0.50          1.103        0.107
  HS02004807           JUNCTION        0.47          1.218        0.002
  HS02004817           JUNCTION        1.02          1.740        0.000
  HS02004824           JUNCTION        0.35          1.310        0.000
  HS02004830           JUNCTION        0.32          1.330        0.000
  HS02004837           JUNCTION        0.28          1.340        0.000
  HS02004842           JUNCTION        0.40          1.520        0.000
  HS02004848           JUNCTION        0.25          1.370        0.000
  HS02004852           JUNCTION        0.28          1.420        0.000
  HS02004856           JUNCTION        0.25          1.300        0.000
  HS02004862           JUNCTION        0.26          1.300        0.000
  HS02004870           JUNCTION        0.26          1.400        0.000
  HS02004876           JUNCTION        0.32          1.560        0.000
  HS02004881           JUNCTION        0.29          1.305        0.145
  HS02004901           JUNCTION        0.43          0.720        0.000
  WS02004401           JUNCTION        1.37          1.125        0.535
  WS02004402           JUNCTION        1.41          1.121        0.619
  WS02004403           JUNCTION        1.42          1.081        0.949
  WS02004404           JUNCTION        1.53          1.119        1.661
  WS02004405           JUNCTION        1.51          1.024        1.776
  WS02004406           JUNCTION        1.50          0.796        1.654
  WS02004409           JUNCTION        0.73          0.355        2.005
  WS02004410           JUNCTION        0.68          0.291        2.249
  WS02004411           JUNCTION        0.64          0.235        2.295
  WS02004412           JUNCTION        0.56          0.405        1.905
  WS02004413           JUNCTION        1.04          0.524        1.676
  WS02006109           JUNCTION        1.75          1.820        0.000
  WS02006110           JUNCTION        1.60          1.850        0.000
  WS02006111           JUNCTION        0.98          1.728        0.142
  WS02006112           JUNCTION        1.64          1.680        0.000
  WS02006113           JUNCTION        0.99          1.930        0.000
  WS02006115           JUNCTION        1.21          1.202        1.048
  WS02006116           JUNCTION        1.25          1.088        1.202
  WS02006228           JUNCTION        1.75          2.200        0.000
  WS02006229           JUNCTION        0.67          1.070        0.000
  WS02006230           JUNCTION        1.48          1.570        0.000
  WS02006231           JUNCTION        1.49          1.482        0.048
  WS02006232           JUNCTION        1.60          1.480        0.000
  WS02006234           JUNCTION        1.47          1.240        0.000
  WS02006235           JUNCTION        1.49          1.290        0.000
  WS02006238           JUNCTION        1.52          1.430        0.000
  WS02006239           JUNCTION        1.43          1.290        0.000
  WS02006240           JUNCTION        1.39          1.390        0.000
  WS02006242           JUNCTION        1.42          0.820        0.000
  WS02006243           JUNCTION        1.29          0.770        0.000
  WS02006245           JUNCTION        1.23          0.850        0.000
  WS02006247           JUNCTION        1.23          0.760        0.000
  WS02006248           JUNCTION        1.16          0.380        0.000
  WS02006249           JUNCTION        1.18          0.390        0.000
  WS02006251           JUNCTION        0.76          1.180        0.000
  WS02006252           JUNCTION        1.12          1.100        0.000
  WS02006253           JUNCTION        0.86          2.480        0.000
  WS02006256           JUNCTION        5.40          2.050        0.000
  WS02006280           JUNCTION        0.58          0.780        0.000
  WS02006284           JUNCTION        0.51          0.800        0.000
  WS02006287           JUNCTION        0.41          0.765        0.125
  YS02001580           JUNCTION        0.35          0.450        0.000
  YS02001583           JUNCTION        0.36          0.500        0.000
  YS02001586           JUNCTION        0.48          0.510        0.000
  YS02001590           JUNCTION        0.55          0.750        0.000
  YS02001593           JUNCTION        0.55          0.840        0.000
  YS02001596           JUNCTION        0.64          1.070        0.000
  YS02001600           JUNCTION        0.77          1.190        0.000
  YS02001601           JUNCTION        1.16          1.440        0.000
  YS02001602           JUNCTION        1.02          1.270        0.000
  YS02001605           JUNCTION        0.96          1.180        0.000
  YS02001607           JUNCTION        0.47          0.680        0.000
  YS02001610           JUNCTION        0.50          0.680        0.000
  YS02001613           JUNCTION        0.46          0.700        0.000
  YS02001616           JUNCTION        0.42          0.610        0.000
  YS02001619           JUNCTION        0.41          0.610        0.000
  YS02001622           JUNCTION        0.40          0.580        0.040
  YS02001625           JUNCTION        0.59          0.780        0.000
  YS02001629           JUNCTION        0.30          0.470        0.000
  YS02001633           JUNCTION        0.60          1.008        0.052
  YS02001641           JUNCTION        0.49          0.849        0.251
  YS02001644           JUNCTION        0.43          0.820        0.100
  YS02001647           JUNCTION        0.20          0.564        0.336
  YS02001649           JUNCTION        0.23          0.655        0.395
  YS02001652           JUNCTION        0.11          0.351        0.779
  YS02001655           JUNCTION        0.01          0.250        0.950
  YS02001754           JUNCTION        0.01          0.285        0.865
  YS02001757           JUNCTION        0.22          0.672        0.538
  YS02001759           JUNCTION        0.18          0.720        0.490
  YS02001762           JUNCTION        0.16          0.672        0.478
  YS02001765           JUNCTION        0.13          0.631        0.469
  YS02001767           JUNCTION        0.12          0.666        0.364
  YS02001770           JUNCTION        0.11          0.729        0.191
  YS02001774           JUNCTION        0.16          0.877        0.173
  YS02001779           JUNCTION        0.02          0.680        0.000
  YS02001783           JUNCTION        0.33          0.434        1.166
  YS02001784           JUNCTION        0.31          0.328        1.162
  YS02001786           JUNCTION        0.21          0.078        1.352
  YS02001882           JUNCTION        0.28          0.634        0.196
  YS02001884           JUNCTION        0.29          0.667        0.203
  YS02001887           JUNCTION        0.32          0.750        0.200
  YS02001890           JUNCTION        0.34          0.760        0.000
  YS02001895           JUNCTION        0.27          0.564        0.186
  YS02001898           JUNCTION        0.27          0.534        0.206
  YS02001901           JUNCTION        0.31          0.677        0.193
  YS02001904           JUNCTION        0.30          0.637        0.213
  YS02001907           JUNCTION        0.50          0.950        0.000
  YS02001910           JUNCTION        0.36          0.983        0.117
  YS02001915           JUNCTION        0.28          0.934        0.066
  YS02001918           JUNCTION        0.19          0.810        0.000
  YS02001920           JUNCTION        0.21          1.103        0.037
  YS02001923           JUNCTION        0.01          0.802        0.018
  YS02001926           JUNCTION        0.01          0.900        0.000
  YS02001929           JUNCTION        0.01          0.780        0.000
  YS02006553           JUNCTION        0.51          0.962        0.228
  YS02006556           JUNCTION        0.43          0.886        0.464
  YS02006558           JUNCTION        0.42          0.863        0.537
  YS02006561           JUNCTION        0.16          0.099        1.051
  YS02163301           JUNCTION        0.58          0.988        0.042
  YS02163601           JUNCTION        0.62          0.959        0.121
  YS02164001           JUNCTION        0.50          0.862        0.238
  YSB1154              JUNCTION        0.69          1.289        0.111
  YSB1171              JUNCTION        0.70          1.100        0.000
  YSB1174              JUNCTION        0.60          1.126        0.124
  YSB6556              JUNCTION        0.54          1.100        0.000
  
  
  *********************
  Node Flooding Summary
  *********************
  
  Flooding refers to all water that overflows a node, whether it ponds or not.
  --------------------------------------------------------------------------
                                                             Total   Maximum
                                 Maximum   Time of Max       Flood    Ponded
                        Hours       Rate    Occurrence      Volume     Depth
  Node                 Flooded       LPS   days hr:min    10^6 ltr    Meters
  --------------------------------------------------------------------------
  HS02004770              0.19    475.20      0  01:38       0.172     0.000
  HS02004777              0.01     89.36      0  01:36       0.001     0.000
  HS02004785              0.01    157.00      0  01:36       0.001     0.000
  HS02004788              0.01    484.93      0  01:36       0.006     0.000
  HS02004792              0.20    607.22      0  01:40       0.250     0.000
  HS02004799              0.01     52.94      0  01:40       0.001     0.000
  HS02004817              0.01     11.58      0  01:40       0.000     0.000
  HS02004824              0.01     21.55      0  01:40       0.000     0.000
  HS02004830              0.01     31.17      0  01:40       0.000     0.000
  HS02004837              0.01     42.22      0  01:40       0.000     0.000
  HS02004842              0.01    111.23      0  01:40       0.001     0.000
  HS02004848              0.01     37.89      0  01:40       0.000     0.000
  HS02004852              0.01     19.75      0  01:40       0.000     0.000
  HS02004856              0.01     18.51      0  01:40       0.000     0.000
  HS02004862              0.01     40.09      0  01:40       0.000     0.000
  HS02004870              0.01      7.23      0  01:40       0.000     0.000
  HS02004876              0.01     11.72      0  01:40       0.000     0.000
  HS02004901              0.28    428.05      0  01:44       0.309     0.000
  WS02006109              0.26    166.12      0  01:40       0.082     0.000
  WS02006110              0.01     90.04      0  01:35       0.000     0.000
  WS02006112              0.01     62.22      0  01:35       0.000     0.000
  WS02006113              0.01    112.44      0  01:35       0.000     0.000
  WS02006228              0.01     14.72      0  01:36       0.000     0.000
  WS02006229              0.01    216.19      0  01:36       0.000     0.000
  WS02006230              0.52    525.57      0  01:40       0.608     0.000
  WS02006232              0.14      0.64      0  01:44       0.000     0.000
  WS02006234              0.57    128.26      0  01:44       0.151     0.000
  WS02006235              0.01     40.01      0  02:35       0.000     0.000
  WS02006238              0.01     20.43      0  02:35       0.000     0.000
  WS02006239              0.01     91.49      0  02:55       0.000     0.000
  WS02006240              0.01    111.09      0  02:50       0.000     0.000
  WS02006242              0.67    276.59      0  01:34       0.271     0.000
  WS02006243              0.01    317.09      0  01:34       0.002     0.000
  WS02006245              0.01    221.08      0  02:55       0.001     0.000
  WS02006247              0.01    430.32      0  01:35       0.002     0.000
  WS02006248              0.92    625.15      0  01:35       0.928     0.000
  WS02006249              0.99   1253.02      0  01:40       2.422     0.000
  WS02006251              0.01    363.82      0  02:40       0.002     0.000
  WS02006252              0.39   1905.90      0  02:05       1.409     0.000
  WS02006253              0.01    523.10      0  03:00       0.000     0.000
  WS02006256              0.28   1486.50      0  02:20       0.432     0.000
  WS02006280              0.01    263.51      0  01:36       0.000     0.000
  WS02006284              0.01    328.13      0  01:36       0.000     0.000
  YS02001580              0.01    141.58      0  01:37       0.001     0.000
  YS02001583              0.01    127.05      0  01:37       0.000     0.000
  YS02001586              0.23    140.76      0  01:37       0.032     0.000
  YS02001590              0.01     69.99      0  01:36       0.000     0.000
  YS02001593              0.01     50.64      0  01:36       0.000     0.000
  YS02001596              0.01     16.85      0  01:36       0.000     0.000
  YS02001600              0.01     12.86      0  01:36       0.000     0.000
  YS02001601              0.41    598.23      0  01:41       0.509     0.000
  YS02001602              0.24     61.98      0  01:48       0.047     0.000
  YS02001605              0.01      9.59      0  01:37       0.000     0.000
  YS02001607              0.01     23.52      0  01:37       0.000     0.000
  YS02001610              0.20    165.23      0  01:44       0.078     0.000
  YS02001613              0.01    119.22      0  01:37       0.000     0.000
  YS02001616              0.01     70.33      0  01:37       0.000     0.000
  YS02001619              0.01     75.86      0  01:37       0.000     0.000
  YS02001625              0.13    252.11      0  01:42       0.066     0.000
  YS02001629              0.01    230.05      0  01:37       0.001     0.000
  YS02001779              0.01    160.78      0  01:40       0.000     0.000
  YS02001890              0.01      7.21      0  01:40       0.000     0.000
  YS02001907              0.12    675.83      0  01:41       0.124     0.000
  YS02001918              0.01    101.27      0  01:40       0.001     0.000
  YS02001926              0.01     27.33      0  01:40       0.000     0.000
  YS02001929              0.01    248.05      0  01:40       0.001     0.000
  YSB1171                 0.06     99.03      0  01:40       0.010     0.000
  YSB6556                 0.01      9.69      0  01:36       0.000     0.000
  
  
  **********************
  Storage Volume Summary
  **********************
  
  --------------------------------------------------------------------------------------------------
                         Average     Avg  Evap Exfil       Maximum     Max    Time of Max    Maximum
                          Volume    Pcnt  Pcnt  Pcnt        Volume    Pcnt     Occurrence    Outflow
  Storage Unit           1000 m3    Full  Loss  Loss       1000 m3    Full    days hr:min        LPS
  --------------------------------------------------------------------------------------------------
  CC-storage               1.454      23     0     0         2.287      36       0  01:50    7830.00
  JK-storage               0.068      23     0     0         0.212      73       0  01:59   11500.00
  XR-storage               0.942      65     0     0         1.111      77       0  08:00     380.00
  
  
  ***********************
  Outfall Loading Summary
  ***********************
  
  -----------------------------------------------------------
                         Flow       Avg       Max       Total
                         Freq      Flow      Flow      Volume
  Outfall Node           Pcnt       LPS       LPS    10^6 ltr
  -----------------------------------------------------------
  CC-1                   2.34   2394.75   3415.00       1.085
  CC-2                  10.62   3190.25   3415.00       5.610
  JK-1                   3.15   2267.69   5000.00       1.288
  JK-2                   1.66   4508.77   5000.00       1.295
  WSC                   99.94    618.80   1491.27      12.713
  -----------------------------------------------------------
  System                23.54  12980.27   1491.27      21.991
  
  
  ********************
  Link Flow Summary
  ********************
  
  -----------------------------------------------------------------------------
                                 Maximum  Time of Max   Maximum    Max/    Max/
                                  |Flow|   Occurrence   |Veloc|    Full    Full
  Link                 Type          LPS  days hr:min     m/sec    Flow   Depth
  -----------------------------------------------------------------------------
  1                    CONDUIT   1491.27     0  01:46      3.69    0.52    0.51
  HS02004478WS02006287 CONDUIT   2203.78     0  01:41      2.81    0.62    1.00
  HS02004479HS02004480 CONDUIT    454.30     0  01:38      0.65    0.44    1.00
  HS02004480HS02004478 CONDUIT   2197.23     0  01:37      3.14    9.25    1.00
  HS02004770HS02004777 CONDUIT    914.83     0  01:36      1.31    1.67    1.00
  HS02004777HS02004785 CONDUIT    920.25     0  01:36      1.44    1.13    1.00
  HS02004785HS02004788 CONDUIT    656.26     0  01:36      1.35    4.95    1.00
  HS02004788HS02004792 CONDUIT    810.87     0  01:53      1.41    0.54    1.00
  HS02004792HS02004799 CONDUIT   1605.73     0  01:37      2.29    0.98    1.00
  HS02004799HS02004480 CONDUIT   1785.79     0  01:37      2.55    2.26    1.00
  HS02004802HS02004478 CONDUIT    483.31     0  01:41      0.69    0.43    1.00
  HS02004807HS02004802 CONDUIT    482.83     0  01:41      0.69    0.92    1.00
  HS02004817HS02004807 CONDUIT    507.71     0  01:37      0.73    0.30    1.00
  HS02004817HS02004824 CONDUIT    506.66     0  01:37      0.72    0.23    1.00
  HS02004824HS02004830 CONDUIT    761.05     0  01:37      1.10    1.00    1.00
  HS02004830HS02004837 CONDUIT    797.93     0  01:37      1.25    0.79    1.00
  HS02004837HS02004842 CONDUIT    954.68     0  01:38      1.36    0.57    1.00
  HS02004842HS02004848 CONDUIT    952.67     0  01:38      1.54    0.55    1.00
  HS02004848HS02004852 CONDUIT   1157.89     0  01:38      1.78    1.31    1.00
  HS02004852HS02004856 CONDUIT   1084.53     0  01:39      1.58    1.24    1.00
  HS02004856HS02004862 CONDUIT   1144.09     0  01:39      1.75    1.14    1.00
  HS02004862HS02004870 CONDUIT   1284.74     0  01:39      1.99    1.39    1.00
  HS02004870HS02004876 CONDUIT   1412.06     0  01:39      2.14    0.94    1.00
  HS02004876HS02004881 CONDUIT   1433.83     0  01:39      2.69   15.25    1.00
  HS02004881HS02006253 CONDUIT   1401.70     0  01:40      2.75    0.27    1.00
  HS02004901HS02004770 CONDUIT    264.46     0  01:48      0.38    0.99    1.00
  WS02001211WS02001212 CONDUIT    303.86     0  01:44      0.54    0.23    0.71
  WS02001212WS02001213 CONDUIT    328.28     0  01:44      1.04    0.51    0.60
  WS02001213WS02003059 CONDUIT    284.19     0  01:43      0.47    0.47    0.91
  WS02003059WS02003060 CONDUIT    347.50     0  01:38      0.66    0.23    0.82
  WS02003060WS02003069 CONDUIT   1494.82     0  01:46      2.19    0.59    0.61
  WS02003066WSF200     CONDUIT   1278.49     0  01:40      3.61    0.22    0.40
  WS02003067WS02003066 CONDUIT   1282.27     0  01:40      2.02    0.41    0.59
  WS02003069WS02003072 CONDUIT   1486.49     0  01:46      1.89    0.72    0.66
  WS02003072WS02003073 CONDUIT   1488.99     0  01:45      2.05    3.22    0.61
  WS02004138WS02004139 CONDUIT    190.77     0  00:29      2.15    0.04    0.43
  WS02004139WS02001211 CONDUIT    342.07     0  01:42      0.54    0.43    0.62
  WS02004401WS02004402 CONDUIT   1300.45     0  01:38      1.66    1.56    1.00
  WS02004402WS02004403 CONDUIT   1302.18     0  01:38      1.66    1.87    1.00
  WS02004403WS02004404 CONDUIT   1304.04     0  01:38      1.66    0.94    1.00
  WS02004404WS02004405 CONDUIT   1308.94     0  01:38      1.67   12.82    1.00
  WS02004405WS02004406 CONDUIT   1311.52     0  01:38      1.67    2.59    1.00
  WS02004406WS02004407 CONDUIT   1312.28     0  01:38      2.05    0.59    0.94
  WS02004407WS02004409 CONDUIT   1277.86     0  01:37      2.16    0.45    0.94
  WS02004409WS02004410 CONDUIT   1266.18     0  01:40      1.64    1.64    1.00
  WS02004410WS02004411 CONDUIT   1265.87     0  01:40      1.61    1.73    1.00
  WS02004411WS02004412 CONDUIT   1265.99     0  01:40      1.61    1.80    1.00
  WS02004412WS02004413 CONDUIT   1266.01     0  01:40      1.61    0.85    1.00
  WS02004413WS02003067 CONDUIT   1266.04     0  01:40      1.97    0.54    0.76
  WS02006109WS02006110 CONDUIT   1173.16     0  01:35      2.33    2.26    1.00
  WS02006110WS02006113 CONDUIT   1173.07     0  01:35      2.34    1.07    1.00
  WS02006111WS02006112 CONDUIT   1123.35     0  01:38      2.23    0.53    1.00
  WS02006112WS02006115 CONDUIT   1298.93     0  01:38      1.65    0.77    1.00
  WS02006113WS02006111 CONDUIT   1124.07     0  01:38      2.71    1.35    1.00
  WS02006115WS02006116 CONDUIT   1298.24     0  01:38      1.65    1.67    1.00
  WS02006116WS02004401 CONDUIT   1299.04     0  01:38      1.65    1.79    1.00
  WS02006228WS02006109 CONDUIT   1238.51     0  01:41      2.46    5.41    1.00
  WS02006229WS02006228 CONDUIT   1239.51     0  01:41      2.47    4.11    1.00
  WS02006230WS02006229 CONDUIT    967.99     0  01:40      2.52   21.54    1.00
  WS02006231WS02006230 CONDUIT    453.27     0  01:41      1.34    6.88    1.00
  WS02006232WS02006231 CONDUIT    453.42     0  01:41      1.18    0.95    1.00
  WS02006234WS02006232 CONDUIT    453.21     0  01:42      1.41    0.92    1.00
  WS02006235WS02006234 CONDUIT    446.61     0  00:06      1.39    4.71    1.00
  WS02006238WS02006235 CONDUIT    453.68     0  00:06      1.45    1.01    1.00
  WS02006239WS02006238 CONDUIT    461.65     0  00:06      1.26    1.48    1.00
  WS02006240WS02006239 CONDUIT    488.54     0  00:06      1.35    1.54    1.00
  WS02006242WS02006240 CONDUIT    568.63     0  00:06      1.58    2.26    1.00
  WS02006243WS02006242 CONDUIT    620.39     0  00:05      1.62    1.33    1.00
  WS02006245WS02006243 CONDUIT    663.71     0  00:05      1.76    1.96    1.00
  WS02006247WS02006245 CONDUIT    668.41     0  00:05      1.74    5.30    1.00
  WS02006248WS02006247 CONDUIT    668.71     0  00:05      1.74    1.46    1.00
  WS02006249WS02006248 CONDUIT    669.97     0  00:05      1.75    3.67    1.00
  WS02006251WS02006249 CONDUIT   1326.53     0  01:40      3.45    3.83    1.00
  WS02006252WS02006251 CONDUIT   1139.21     0  01:30    >50.00    4.18    1.00
  WS02006253WS02006251 CONDUIT   1425.86     0  01:40      3.71    4.28    1.00
  WS02006256WS02006235 CONDUIT    288.93     0  00:00      4.23    3.06    1.00
  WS02006280WS02006229 CONDUIT   2206.03     0  01:41      4.73    0.47    1.00
  WS02006284WS02006280 CONDUIT   2204.31     0  01:41      3.15    0.92    1.00
  WS02006287WS02006284 CONDUIT   2204.23     0  01:41      2.95    1.02    1.00
  WSF200WS02003060     CONDUIT   1425.23     0  01:38      2.95    0.32    0.50
  YS02001580YS02001583 CONDUIT    219.12     0  01:37      0.99    0.85    1.00
  YS02001583YS02001586 CONDUIT    215.99     0  01:37      1.01    0.33    1.00
  YS02001586YS02001590 CONDUIT    317.99     0  01:42      1.32    0.56    1.00
  YS02001590YS02001593 CONDUIT    317.90     0  01:43      1.12    2.00    1.00
  YS02001593YS02001596 CONDUIT    317.90     0  01:49      1.73    0.50    1.00
  YS02001596YS02001600 CONDUIT    317.94     0  01:45      1.19    0.62    1.00
  YS02001600YS02001601 CONDUIT    317.85     0  01:42      1.12    0.55    1.00
  YS02001601YS02001602 CONDUIT    587.41     0  01:37      2.08    2.12    1.00
  YS02001602YS02001605 CONDUIT    587.30     0  01:37      2.08   12.43    1.00
  YS02001605YS02001607 CONDUIT    586.91     0  01:37      2.08    3.22    1.00
  YS02001607YS02001610 CONDUIT    557.69     0  01:37      0.75    0.53    1.00
  YS02001610YS02001613 CONDUIT    527.91     0  01:37      0.70    0.61    1.00
  YS02001613YS02001616 CONDUIT    513.86     0  02:01      0.69    0.44    1.00
  YS02001616YS02001619 CONDUIT    514.13     0  02:01      0.67    0.89    1.00
  YS02001619YS02001622 CONDUIT    920.32     0  01:39      1.36    1.36    1.00
  YS02001622YS02001625 CONDUIT    919.75     0  01:39      1.17    0.49    1.00
  YS02001625YS02001629 CONDUIT    918.96     0  01:39      1.17    0.44    1.00
  YS02001629YS02163301 CONDUIT    916.83     0  01:39      1.17    1.13    1.00
  YS02001633YS02163601 CONDUIT   1417.57     0  01:39      1.80    1.49    1.00
  YS02001641YS02001644 CONDUIT   1416.98     0  01:39      1.80    4.58    1.00
  YS02001644YS02001647 CONDUIT   1852.83     0  01:39      2.38    1.09    1.00
  YS02001647YS02001649 CONDUIT   1844.17     0  01:39      2.40    0.97    1.00
  YS02001649YS02001757 CONDUIT   2204.37     0  01:39      2.81    1.34    1.00
  YS02001652YS02001649 CONDUIT    450.62     0  01:43      0.91    0.22    1.00
  YS02001655YS02001652 CONDUIT    483.88     0  01:40      1.63    0.23    1.00
  YS02001658YS02001655 CONDUIT    518.94     0  01:42      2.09    0.22    0.84
  YS02001661YS02001658 CONDUIT    453.81     0  01:41      2.35    0.18    0.51
  YS02001664YS02001661 CONDUIT    437.91     0  01:40      2.20    0.14    0.31
  YS02001745YS02001748 CONDUIT    282.25     0  01:39      2.17    0.11    0.37
  YS02001748YS02001751 CONDUIT    426.74     0  01:41      1.82    0.22    0.70
  YS02001751YS02001754 CONDUIT    398.06     0  01:41      1.66    0.19    0.91
  YS02001754YS02001757 CONDUIT    321.76     0  01:43      0.63    0.13    1.00
  YS02001757CaochengTiaoxuchi CONDUIT   3048.56     0  01:43      4.63    1.32    0.91
  YS02001759YS02001757 CONDUIT   1054.38     0  01:40      1.34    0.75    1.00
  YS02001762YS02001759 CONDUIT    659.05     0  01:40      0.84    0.76    1.00
  YS02001765YS02001762 CONDUIT    649.60     0  01:40      0.83    0.61    1.00
  YS02001767YS02001765 CONDUIT    637.80     0  01:40      0.88    0.80    1.00
  YS02001770YS02001767 CONDUIT    630.27     0  01:41      0.94    2.50    1.00
  YS02001774YS02001770 CONDUIT    248.35     0  01:40      0.32    0.16    1.00
  YS02001779YS02001774 CONDUIT    252.42     0  01:40      0.33    0.13    1.00
  YS02001783YS02001784 CONDUIT   1145.75     0  01:41      2.28    1.58    1.00
  YS02001784YS02001785 CONDUIT   1146.50     0  01:40      2.28    2.67    1.00
  YS02001786YS02001788 CONDUIT   1147.63     0  01:40      2.46    2.21    0.89
  YS02001788YS02001790 CONDUIT   1161.58     0  01:41      2.70    0.86    0.83
  YS02001790YS02001791 CONDUIT   1266.72     0  01:42      3.41    1.38    0.70
  YS02001791YS02001793 CONDUIT   1211.11     0  01:47      6.72    0.52    0.43
  YS02001793JiankangQianchi CONDUIT   1296.86     0  01:45      2.59    0.10    0.64
  YS02001882YS02001884 CONDUIT     77.85     0  01:38      0.15    0.09    1.00
  YS02001884YS02001887 CONDUIT    120.37     0  01:38      0.15    0.16    1.00
  YS02001887YS02001890 CONDUIT    466.11     0  01:38      0.59    0.80    1.00
  YS02001890YS02001895 CONDUIT    472.93     0  01:38      0.60    0.22    1.00
  YS02001895YS02001898 CONDUIT    481.49     0  01:39      0.61    0.84    1.00
  YS02001898YS02001901 CONDUIT    501.01     0  01:39      0.64    0.32    1.00
  YS02001901YS02001904 CONDUIT    504.97     0  01:39      0.64    0.78    1.00
  YS02001904YS02001907 CONDUIT    514.02     0  01:39      0.65    0.18    1.00
  YS02001907YS02006553 CONDUIT    784.69     0  01:49      0.87    0.92    1.00
  YS02001910YS02001907 CONDUIT    900.22     0  01:41      1.15    0.51    1.00
  YS02001915YS02001910 CONDUIT    900.71     0  01:41      1.15    0.45    1.00
  YS02001918YS02001915 CONDUIT    450.66     0  01:41      0.60    0.25    1.00
  YS02001920YS02001918 CONDUIT    449.63     0  01:41      0.69    0.43    1.00
  YS02001923YS02001920 CONDUIT    446.00     0  01:41      0.86    0.20    1.00
  YS02001926YS02001923 CONDUIT    390.59     0  01:41      1.00    0.56    1.00
  YS02001929YS02001926 CONDUIT    410.63     0  01:40      1.14    0.19    1.00
  YS02006553YS02006556 CONDUIT    784.39     0  01:49      1.00    0.67    1.00
  YS02006556YS02006558 CONDUIT    784.94     0  01:50      1.00    0.62    1.00
  YS02006558YS02006561 CONDUIT   1146.36     0  01:39      4.05    2.53    1.00
  YS02006561YS02001783 CONDUIT   1145.39     0  01:41      2.29    0.59    1.00
  YS02163301YS02001633 CONDUIT    916.70     0  01:39      1.17    0.86    1.00
  YS02163601YS02164001 CONDUIT   1417.76     0  01:39      1.81    1.26    1.00
  YS02164001YS02001641 CONDUIT   1417.67     0  01:39      1.81    1.94    1.00
  YSB1154YSB6556       CONDUIT    240.78     0  01:39      0.63    0.43    1.00
  YSB1171HS02004479    CONDUIT    450.32     0  01:38      0.90    0.30    1.00
  YSB1174YSB1171       CONDUIT    210.77     0  01:38      0.55    0.32    1.00
  YSB6556YSB1171       CONDUIT    241.57     0  01:39      0.63    0.25    1.00
  CC-R1                PUMP      3415.00     0  00:05              5.00
  CC-R2                PUMP      3415.00     0  00:05              5.00
  CC-S1                PUMP      1000.00     0  01:25              5.00
  CC-S2                PUMP      1000.00     0  00:05              5.00
  JK-R1                PUMP      5000.00     0  01:35              5.00
  JK-R2                PUMP      5000.00     0  01:35              5.00
  JK-S                 PUMP      1500.00     0  00:20              5.00
  XR-1                 PUMP        95.00     0  00:00              1.00
  XR-2                 PUMP        95.00     0  00:00              1.00
  XR-3                 PUMP        95.00     0  00:00              1.00
  XR-4                 PUMP        95.00     0  00:00              1.00
  
  
  ***************************
  Flow Classification Summary
  ***************************
  
  -------------------------------------------------------------------------------------
                      Adjusted    ---------- Fraction of Time in Flow Class ---------- 
                       /Actual         Up    Down  Sub   Sup   Up    Down  Norm  Inlet 
  Conduit               Length    Dry  Dry   Dry   Crit  Crit  Crit  Crit  Ltd   Ctrl  
  -------------------------------------------------------------------------------------
  1                       1.00   0.00  0.00  0.00  0.00  1.00  0.00  0.00  0.34  0.00
  HS02004478WS02006287    1.00   0.11  0.00  0.00  0.56  0.33  0.00  0.00  0.61  0.00
  HS02004479HS02004480    1.00   0.04  0.00  0.00  0.96  0.00  0.00  0.00  0.11  0.00
  HS02004480HS02004478    1.00   0.09  0.00  0.00  0.51  0.00  0.00  0.40  0.00  0.00
  HS02004770HS02004777    1.00   0.00  0.09  0.00  0.91  0.00  0.00  0.00  0.03  0.00
  HS02004777HS02004785    1.00   0.00  0.00  0.00  1.00  0.00  0.00  0.00  0.12  0.00
  HS02004785HS02004788    1.00   0.00  0.00  0.00  1.00  0.00  0.00  0.00  0.00  0.00
  HS02004788HS02004792    1.00   0.00  0.00  0.00  0.99  0.01  0.00  0.00  0.92  0.00
  HS02004792HS02004799    1.00   0.00  0.00  0.00  0.99  0.01  0.00  0.00  0.88  0.00
  HS02004799HS02004480    1.00   0.00  0.04  0.00  0.90  0.00  0.06  0.00  0.00  0.00
  HS02004802HS02004478    1.00   0.09  0.00  0.00  0.91  0.00  0.00  0.00  0.02  0.00
  HS02004807HS02004802    1.00   0.09  0.00  0.00  0.90  0.00  0.00  0.01  0.00  0.00
  HS02004817HS02004807    1.00   0.00  0.09  0.00  0.91  0.00  0.00  0.00  0.01  0.00
  HS02004817HS02004824    1.00   0.00  0.00  0.00  1.00  0.00  0.00  0.00  0.84  0.00
  HS02004824HS02004830    1.00   0.00  0.00  0.00  1.00  0.00  0.00  0.00  0.00  0.00
  HS02004830HS02004837    1.00   0.00  0.00  0.00  1.00  0.00  0.00  0.00  0.90  0.00
  HS02004837HS02004842    1.00   0.00  0.00  0.00  0.99  0.01  0.00  0.00  0.11  0.00
  HS02004842HS02004848    1.00   0.00  0.09  0.00  0.91  0.00  0.00  0.00  0.59  0.00
  HS02004848HS02004852    1.00   0.09  0.00  0.00  0.91  0.00  0.00  0.00  0.73  0.00
  HS02004852HS02004856    1.00   0.09  0.01  0.00  0.91  0.00  0.00  0.00  0.70  0.00
  HS02004856HS02004862    1.00   0.00  0.11  0.00  0.89  0.00  0.00  0.00  0.76  0.00
  HS02004862HS02004870    1.00   0.00  0.00  0.00  1.00  0.00  0.00  0.00  0.03  0.00
  HS02004870HS02004876    1.00   0.01  0.00  0.00  0.99  0.00  0.00  0.00  0.92  0.00
  HS02004876HS02004881    1.00   0.01  0.00  0.00  0.76  0.23  0.00  0.00  0.00  0.00
  HS02004881HS02006253    1.00   0.00  0.01  0.00  0.35  0.06  0.00  0.58  0.14  0.00
  HS02004901HS02004770    1.00   0.09  0.00  0.00  0.91  0.00  0.00  0.00  0.00  0.00
  WS02001211WS02001212    1.00   0.00  0.03  0.00  0.97  0.00  0.00  0.00  0.00  0.00
  WS02001212WS02001213    1.00   0.03  0.00  0.00  0.44  0.00  0.52  0.00  0.00  0.00
  WS02001213WS02003059    1.00   0.00  0.00  0.00  0.99  0.00  0.00  0.00  0.00  0.00
  WS02003059WS02003060    1.00   0.00  0.00  0.00  1.00  0.00  0.00  0.00  0.03  0.00
  WS02003060WS02003069    1.00   0.00  0.00  0.00  0.98  0.02  0.00  0.00  0.58  0.00
  WS02003066WSF200        1.00   0.06  0.00  0.00  0.00  0.94  0.00  0.00  0.71  0.00
  WS02003067WS02003066    1.00   0.06  0.00  0.00  0.94  0.00  0.00  0.00  0.00  0.00
  WS02003069WS02003072    1.00   0.00  0.00  0.00  1.00  0.00  0.00  0.00  0.72  0.00
  WS02003072WS02003073    1.00   0.00  0.00  0.00  0.00  0.00  0.00  1.00  0.00  0.00
  WS02004138WS02004139    1.00   0.00  0.01  0.00  0.97  0.01  0.00  0.02  0.98  0.00
  WS02004139WS02001211    1.00   0.00  0.00  0.00  0.99  0.00  0.00  0.00  0.00  0.00
  WS02004401WS02004402    1.00   0.03  0.00  0.00  0.97  0.00  0.00  0.00  0.00  0.00
  WS02004402WS02004403    1.00   0.03  0.00  0.00  0.97  0.00  0.00  0.00  0.00  0.00
  WS02004403WS02004404    1.00   0.00  0.03  0.00  0.97  0.00  0.00  0.00  0.00  0.00
  WS02004404WS02004405    1.00   0.00  0.00  0.00  1.00  0.00  0.00  0.00  0.00  0.00
  WS02004405WS02004406    1.00   0.00  0.00  0.00  1.00  0.00  0.00  0.00  0.00  0.00
  WS02004406WS02004407    1.00   0.00  0.04  0.00  0.96  0.00  0.00  0.00  0.00  0.00
  WS02004407WS02004409    1.00   0.04  0.00  0.00  0.95  0.00  0.00  0.00  0.86  0.00
  WS02004409WS02004410    1.00   0.04  0.00  0.00  0.96  0.00  0.00  0.00  0.00  0.00
  WS02004410WS02004411    1.00   0.04  0.00  0.00  0.96  0.00  0.00  0.00  0.00  0.00
  WS02004411WS02004412    1.00   0.05  0.00  0.00  0.95  0.00  0.00  0.00  0.00  0.00
  WS02004412WS02004413    1.00   0.05  0.00  0.00  0.95  0.00  0.00  0.00  0.00  0.00
  WS02004413WS02003067    1.00   0.05  0.01  0.00  0.00  0.00  0.94  0.00  0.00  0.00
  WS02006109WS02006110    1.00   0.00  0.01  0.00  0.98  0.00  0.01  0.00  0.00  0.00
  WS02006110WS02006113    1.00   0.01  0.01  0.00  0.98  0.00  0.00  0.00  0.00  0.00
  WS02006111WS02006112    1.00   0.02  0.00  0.00  0.97  0.00  0.00  0.00  0.79  0.00
  WS02006112WS02006115    1.00   0.02  0.00  0.00  0.97  0.00  0.00  0.00  0.00  0.00
  WS02006113WS02006111    1.00   0.02  0.00  0.00  0.29  0.68  0.00  0.00  0.06  0.00
[...]
  WS02006253WS02006251    1.00   0.00  0.00  0.00  0.99  0.00  0.01  0.00  0.01  0.00
  WS02006256WS02006235    1.00   0.00  0.00  0.00  1.00  0.00  0.00  0.00  0.00  0.00
  WS02006280WS02006229    1.00   0.09  0.00  0.00  0.22  0.06  0.00  0.63  0.01  0.00
  WS02006284WS02006280    1.00   0.09  0.00  0.00  0.15  0.01  0.00  0.75  0.00  0.00
  WS02006287WS02006284    1.00   0.08  0.03  0.00  0.47  0.41  0.00  0.01  0.66  0.00
  WSF200WS02003060        1.00   0.00  0.06  0.00  0.52  0.41  0.00  0.00  0.68  0.00
  YS02001580YS02001583    1.00   0.16  0.54  0.00  0.30  0.00  0.00  0.00  0.73  0.00
  YS02001583YS02001586    1.00   0.33  0.26  0.00  0.41  0.00  0.00  0.00  0.73  0.00
  YS02001586YS02001590    1.00   0.09  0.00  0.00  0.58  0.03  0.00  0.31  0.33  0.00
  YS02001590YS02001593    1.00   0.09  0.00  0.00  0.15  0.00  0.75  0.00  0.00  0.00
  YS02001593YS02001596    1.00   0.09  0.00  0.00  0.18  0.02  0.00  0.71  0.02  0.00
  YS02001596YS02001600    1.00   0.09  0.00  0.00  0.33  0.05  0.00  0.53  0.07  0.00
  YS02001600YS02001601    1.00   0.09  0.00  0.00  0.91  0.00  0.00  0.00  0.63  0.00
  YS02001601YS02001602    1.00   0.09  0.00  0.00  0.91  0.00  0.00  0.00  0.00  0.00
  YS02001602YS02001605    1.00   0.09  0.00  0.00  0.91  0.00  0.00  0.00  0.00  0.00
  YS02001605YS02001607    1.00   0.09  0.00  0.00  0.91  0.00  0.00  0.00  0.00  0.00
  YS02001607YS02001610    1.00   0.09  0.00  0.00  0.90  0.00  0.00  0.00  0.02  0.00
  YS02001610YS02001613    1.00   0.09  0.00  0.00  0.91  0.00  0.00  0.00  0.00  0.00
  YS02001613YS02001616    1.00   0.09  0.00  0.00  0.91  0.00  0.00  0.00  0.00  0.00
  YS02001616YS02001619    1.00   0.09  0.00  0.00  0.91  0.00  0.00  0.00  0.00  0.00
  YS02001619YS02001622    1.00   0.09  0.00  0.00  0.91  0.00  0.00  0.00  0.36  0.00
  YS02001622YS02001625    1.00   0.09  0.00  0.00  0.91  0.00  0.00  0.00  0.04  0.00
  YS02001625YS02001629    1.00   0.09  0.03  0.00  0.22  0.00  0.66  0.00  0.00  0.00
  YS02001629YS02163301    1.00   0.10  0.00  0.00  0.89  0.00  0.00  0.00  0.00  0.00
  YS02001633YS02163601    1.00   0.00  0.01  0.00  0.99  0.00  0.00  0.00  0.15  0.00
  YS02001641YS02001644    1.00   0.00  0.01  0.00  0.99  0.00  0.00  0.00  0.00  0.00
  YS02001644YS02001647    1.00   0.00  0.11  0.00  0.89  0.00  0.00  0.00  0.00  0.00
  YS02001647YS02001649    1.00   0.00  0.11  0.00  0.46  0.43  0.00  0.00  0.60  0.00
  YS02001649YS02001757    1.00   0.00  0.00  0.00  0.51  0.49  0.00  0.00  0.65  0.00
  YS02001652YS02001649    1.00   0.00  0.00  0.00  0.97  0.03  0.00  0.00  0.76  0.00
  YS02001655YS02001652    1.00   0.00  0.00  0.00  0.25  0.05  0.00  0.70  0.10  0.00
  YS02001658YS02001655    1.00   0.00  0.10  0.00  0.47  0.44  0.00  0.00  0.77  0.00
  YS02001661YS02001658    1.00   0.10  0.00  0.00  0.33  0.57  0.00  0.00  0.78  0.00
  YS02001664YS02001661    1.00   0.09  0.00  0.00  0.67  0.24  0.00  0.00  0.87  0.00
  YS02001745YS02001748    1.00   0.00  0.00  0.00  0.02  0.02  0.00  0.96  0.02  0.00
  YS02001748YS02001751    1.00   0.00  0.00  0.00  0.58  0.42  0.00  0.00  0.84  0.00
  YS02001751YS02001754    1.00   0.00  0.00  0.00  0.15  0.02  0.00  0.83  0.05  0.00
  YS02001754YS02001757    1.00   0.00  0.00  0.00  1.00  0.00  0.00  0.00  0.89  0.00
  YS02001757CaochengTiaoxuchi    1.00   0.00  0.00  0.00  0.73  0.27  0.00  0.00  0.95  0.00
  YS02001759YS02001757    1.00   0.00  0.00  0.00  1.00  0.00  0.00  0.00  0.64  0.00
  YS02001762YS02001759    1.00   0.00  0.00  0.00  1.00  0.00  0.00  0.00  0.03  0.00
  YS02001765YS02001762    1.00   0.00  0.00  0.00  1.00  0.00  0.00  0.00  0.76  0.00
  YS02001767YS02001765    1.00   0.00  0.00  0.00  1.00  0.00  0.00  0.00  0.00  0.00
  YS02001770YS02001767    1.00   0.00  0.00  0.00  1.00  0.00  0.00  0.00  0.00  0.00
  YS02001774YS02001770    1.00   0.00  0.09  0.00  0.74  0.00  0.17  0.00  0.03  0.00
  YS02001779YS02001774    1.00   0.00  0.00  0.00  1.00  0.00  0.00  0.00  0.81  0.00
  YS02001783YS02001784    1.00   0.00  0.12  0.00  0.88  0.00  0.00  0.00  0.58  0.00
  YS02001784YS02001785    1.00   0.00  0.00  0.00  1.00  0.00  0.00  0.00  0.17  0.00
  YS02001786YS02001788    1.00   0.00  0.00  0.00  0.60  0.40  0.00  0.00  0.00  0.00
  YS02001788YS02001790    1.00   0.00  0.00  0.00  0.14  0.86  0.00  0.00  0.85  0.00
  YS02001790YS02001791    1.00   0.00  0.00  0.00  0.02  0.98  0.00  0.00  0.17  0.00
  YS02001791YS02001793    1.00   0.00  0.00  0.00  0.00  1.00  0.00  0.00  0.00  0.00
  YS02001793JiankangQianchi    1.00   0.00  0.00  0.00  0.98  0.02  0.00  0.00  0.98  0.00
  YS02001882YS02001884    1.00   0.10  0.00  0.00  0.90  0.00  0.00  0.00  0.00  0.00
  YS02001884YS02001887    1.00   0.06  0.03  0.00  0.92  0.00  0.00  0.00  0.00  0.00
  YS02001887YS02001890    1.00   0.00  0.00  0.00  0.96  0.00  0.03  0.00  0.00  0.00
  YS02001890YS02001895    1.00   0.00  0.10  0.00  0.89  0.00  0.00  0.00  0.00  0.00
  YS02001895YS02001898    1.00   0.11  0.00  0.00  0.88  0.00  0.02  0.00  0.00  0.00
  YS02001898YS02001901    1.00   0.11  0.00  0.00  0.89  0.00  0.00  0.00  0.01  0.00
  YS02001901YS02001904    1.00   0.11  0.00  0.00  0.89  0.00  0.00  0.00  0.00  0.00
  YS02001904YS02001907    1.00   0.00  0.10  0.00  0.89  0.00  0.00  0.00  0.00  0.00
  YS02001907YS02006553    1.00   0.00  0.03  0.00  0.97  0.00  0.00  0.00  0.00  0.00
  YS02001910YS02001907    1.00   0.00  0.00  0.00  0.96  0.00  0.00  0.03  0.12  0.00
  YS02001915YS02001910    1.00   0.00  0.00  0.00  0.97  0.03  0.00  0.00  0.16  0.00
  YS02001918YS02001915    1.00   0.00  0.00  0.00  0.97  0.02  0.00  0.00  0.79  0.00
  YS02001920YS02001918    1.00   0.00  0.00  0.00  1.00  0.00  0.00  0.00  0.00  0.00
  YS02001923YS02001920    1.00   0.00  0.00  0.00  1.00  0.00  0.00  0.00  0.95  0.00
  YS02001926YS02001923    1.00   0.00  0.06  0.00  0.06  0.00  0.88  0.00  0.00  0.00
  YS02001929YS02001926    1.00   0.00  0.09  0.00  0.91  0.00  0.00  0.00  0.85  0.00
  YS02006553YS02006556    1.00   0.01  0.00  0.00  0.99  0.00  0.00  0.00  0.03  0.00
  YS02006556YS02006558    1.00   0.00  0.00  0.00  1.00  0.00  0.00  0.00  0.00  0.00
  YS02006558YS02006561    1.00   0.12  0.00  0.00  0.05  0.83  0.00  0.00  0.19  0.00
  YS02006561YS02001783    1.00   0.12  0.00  0.00  0.10  0.78  0.00  0.00  0.73  0.00
  YS02163301YS02001633    1.00   0.00  0.10  0.00  0.90  0.00  0.00  0.00  0.00  0.00
  YS02163601YS02164001    1.00   0.00  0.07  0.00  0.93  0.00  0.00  0.00  0.00  0.00
  YS02164001YS02001641    1.00   0.01  0.06  0.00  0.93  0.00  0.00  0.00  0.06  0.00
  YSB1154YSB6556          1.00   0.09  0.00  0.00  0.91  0.00  0.00  0.00  0.02  0.00
  YSB1171HS02004479       1.00   0.04  0.00  0.00  0.95  0.00  0.00  0.01  0.10  0.00
  YSB1174YSB1171          1.00   0.05  0.02  0.00  0.93  0.00  0.00  0.00  0.00  0.00
  YSB6556YSB1171          1.00   0.04  0.04  0.00  0.91  0.00  0.00  0.00  0.00  0.00
  
  
  *************************
  Conduit Surcharge Summary
  *************************
  
  ----------------------------------------------------------------------------
                                                           Hours        Hours 
                         --------- Hours Full --------   Above Full   Capacity
  Conduit                Both Ends  Upstream  Dnstream   Normal Flow   Limited
  ----------------------------------------------------------------------------
  HS02004478WS02006287        0.34      0.34      0.49      0.01         0.01
  HS02004479HS02004480        0.50      0.50      0.52      0.01         0.01
  HS02004480HS02004478        0.42      0.50      0.42      1.63         0.42
  HS02004770HS02004777        0.42      0.42      0.42      0.11         0.09
  HS02004777HS02004785        0.37      0.37      0.42      0.01         0.01
  HS02004785HS02004788        0.36      0.37      0.36      1.25         0.35
  HS02004788HS02004792        0.36      0.36      0.47      0.01         0.01
  HS02004792HS02004799        0.47      0.47      0.57      0.01         0.01
  HS02004799HS02004480        0.50      0.50      0.57      0.68         0.01
  HS02004802HS02004478        0.43      0.43      0.50      0.01         0.01
  HS02004807HS02004802        0.47      0.47      0.50      0.01         0.03
  HS02004817HS02004807        0.47      0.47      1.02      0.01         0.01
  HS02004817HS02004824        0.35      0.35      1.02      0.01         0.01
  HS02004824HS02004830        0.32      0.32      0.35      0.01         0.01
  HS02004830HS02004837        0.28      0.28      0.32      0.01         0.01
  HS02004837HS02004842        0.28      0.28      0.40      0.01         0.01
  HS02004842HS02004848        0.25      0.25      0.40      0.01         0.01
  HS02004848HS02004852        0.25      0.25      0.28      0.03         0.02
  HS02004852HS02004856        0.28      0.28      0.29      0.02         0.02
  HS02004856HS02004862        0.25      0.25      0.26      0.02         0.01
  HS02004862HS02004870        0.26      0.26      0.26      0.03         0.03
  HS02004870HS02004876        0.26      0.26      0.32      0.01         0.01
  HS02004876HS02004881        0.29      0.32      0.29      1.24         0.29
  HS02004881HS02006253        0.29      0.29      0.85      0.01         0.01
  HS02004901HS02004770        0.42      0.42      0.43      0.01         0.01
  WS02003072WS02003073        0.01      0.01      0.01      1.97         0.01
  WS02004401WS02004402        1.37      1.37      1.41      1.11         1.08
  WS02004402WS02004403        1.41      1.41      1.42      1.35         1.34
  WS02004403WS02004404        1.42      1.42      1.53      0.01         0.01
  WS02004404WS02004405        1.51      1.53      1.51      2.51         1.51
  WS02004405WS02004406        1.50      1.51      1.50      1.62         1.50
  WS02004406WS02004407        0.01      0.01      1.50      0.01         0.01
  WS02004407WS02004409        0.01      0.01      0.73      0.01         0.01
  WS02004409WS02004410        0.68      0.73      0.68      1.21         0.68
  WS02004410WS02004411        0.64      0.68      0.64      1.30         0.64
  WS02004411WS02004412        0.56      0.64      0.56      1.34         0.56
  WS02004412WS02004413        0.56      0.56      1.04      0.01         0.01
  WS02004413WS02003067        0.01      0.01      1.04      0.01         0.01
  WS02006109WS02006110        1.60      1.60      1.77      1.60         0.01
  WS02006110WS02006113        0.99      0.99      1.76      0.25         0.01
  WS02006111WS02006112        0.98      0.98      1.88      0.01         0.01
  WS02006112WS02006115        1.21      1.21      1.64      0.01         0.01
  WS02006113WS02006111        0.99      0.99      0.99      1.08         0.98
  WS02006115WS02006116        1.24      1.24      1.25      1.20         1.17
  WS02006116WS02004401        1.36      1.36      1.37      1.32         1.28
  WS02006228WS02006109        1.75      1.77      1.75      2.01         1.75
  WS02006229WS02006228        1.75      1.75      1.75      1.89         1.74
  WS02006230WS02006229        1.78      1.79      1.79      2.71         0.87
  WS02006231WS02006230        1.48      1.48      1.50      2.22         0.83
  WS02006232WS02006231        1.49      1.49      1.60      0.01         0.12
  WS02006234WS02006232        1.50      1.50      1.60      0.01         0.01
  WS02006235WS02006234        1.46      1.47      1.48      1.90         0.79
  WS02006238WS02006235        1.51      1.51      1.54      0.01         0.24
  WS02006239WS02006238        1.48      1.48      1.52      0.64         0.06
  WS02006240WS02006239        1.40      1.40      1.43      0.64         0.04
  WS02006242WS02006240        1.39      1.39      1.47      0.80         0.68
  WS02006243WS02006242        1.31      1.31      1.42      0.01         0.01
  WS02006245WS02006243        1.24      1.25      1.29      0.07         0.04
  WS02006247WS02006245        1.23      1.25      1.23      1.58         0.31
  WS02006248WS02006247        1.18      1.18      1.23      0.02         0.03
  WS02006249WS02006248        1.16      1.16      1.18      0.41         0.03
  WS02006251WS02006249        1.14      1.19      1.18      0.86         0.67
  WS02006252WS02006251        0.92      1.59      1.09      0.45         0.01
  WS02006253WS02006251        1.14      1.18      1.19      0.69         0.12
  WS02006256WS02006235        2.08      2.11      5.35      0.06         0.01
  WS02006280WS02006229        0.58      0.58      0.68      0.01         0.01
  WS02006284WS02006280        0.51      0.51      0.58      0.01         0.01
  WS02006287WS02006284        0.42      0.42      0.52      0.08         0.08
  YS02001580YS02001583        0.35      0.35      0.40      0.01         0.01
  YS02001583YS02001586        0.36      0.36      0.48      0.01         0.01
  YS02001586YS02001590        0.49      0.49      0.55      0.01         0.01
  YS02001590YS02001593        0.55      0.55      0.56      0.61         0.01
  YS02001593YS02001596        0.56      0.56      0.64      0.01         0.01
  YS02001596YS02001600        0.68      0.68      0.77      0.01         0.01
  YS02001600YS02001601        0.83      0.83      1.16      0.01         0.01
  YS02001601YS02001602        1.02      1.02      1.22      0.80         0.01
  YS02001602YS02001605        0.96      0.96      1.02      1.98         0.01
  YS02001605YS02001607        0.92      0.96      0.92      1.11         0.92
  YS02001607YS02001610        0.47      0.47      0.50      0.01         0.01
  YS02001610YS02001613        0.46      0.46      0.50      0.01         0.01
  YS02001613YS02001616        0.42      0.42      0.46      0.01         0.01
  YS02001616YS02001619        0.41      0.41      0.42      0.01         0.01
  YS02001619YS02001622        0.40      0.41      0.40      0.59         0.39
  YS02001622YS02001625        0.40      0.40      0.59      0.01         0.01
  YS02001625YS02001629        0.30      0.30      0.59      0.01         0.01
  YS02001629YS02163301        0.57      0.57      0.58      0.34         0.31
  YS02001633YS02163601        0.60      0.60      0.62      0.50         0.50
  YS02001641YS02001644        0.43      0.49      0.43      1.29         0.43
  YS02001644YS02001647        0.20      0.20      0.43      0.04         0.01
  YS02001647YS02001649        0.20      0.20      0.23      0.01         0.01
  YS02001649YS02001757        0.22      0.23      0.22      0.31         0.22
  YS02001652YS02001649        0.13      0.13      0.23      0.01         0.01
  YS02001655YS02001652        0.01      0.01      0.11      0.01         0.01
  YS02001658YS02001655        0.01      0.01      0.01      0.01         0.01
  YS02001751YS02001754        0.01      0.01      0.01      0.01         0.01
  YS02001754YS02001757        0.03      0.03      0.22      0.01         0.01
  YS02001757CaochengTiaoxuchi        0.01      0.22      0.01      0.31         0.01
  YS02001759YS02001757        0.18      0.18      0.22      0.01         0.01
  YS02001762YS02001759        0.16      0.16      0.18      0.01         0.01
  YS02001765YS02001762        0.13      0.13      0.16      0.01         0.01
  YS02001767YS02001765        0.12      0.12      0.13      0.01         0.01
  YS02001770YS02001767        0.12      0.12      0.12      0.40         0.10
  YS02001774YS02001770        0.11      0.11      0.16      0.01         0.01
  YS02001779YS02001774        0.02      0.02      0.16      0.01         0.01
  YS02001783YS02001784        0.31      0.33      0.31      0.45         0.31
  YS02001784YS02001785        0.21      0.31      0.21      0.64         0.21
  YS02001786YS02001788        0.01      0.21      0.01      0.53         0.01
  YS02001790YS02001791        0.01      0.01      0.01      0.30         0.01
  YS02001793JiankangQianchi        0.01      0.01      4.43      0.01         0.01
  YS02001882YS02001884        0.28      0.28      0.29      0.01         0.01
  YS02001884YS02001887        0.31      0.31      0.32      0.01         0.01
  YS02001887YS02001890        0.34      0.34      0.35      0.01         0.01
  YS02001890YS02001895        0.27      0.27      0.36      0.01         0.01
  YS02001895YS02001898        0.27      0.27      0.27      0.01         0.01
  YS02001898YS02001901        0.27      0.27      0.31      0.01         0.01
  YS02001901YS02001904        0.30      0.30      0.31      0.01         0.01
  YS02001904YS02001907        0.30      0.30      0.51      0.01         0.01
  YS02001907YS02006553        0.65      0.65      0.70      0.01         0.01
  YS02001910YS02001907        0.36      0.36      0.50      0.01         0.01
  YS02001915YS02001910        0.28      0.28      0.36      0.01         0.01
  YS02001918YS02001915        0.19      0.19      0.28      0.01         0.01
  YS02001920YS02001918        0.19      0.19      0.21      0.01         0.01
  YS02001923YS02001920        0.13      0.13      0.21      0.01         0.01
  YS02001926YS02001923        0.01      0.01      0.01      0.01         0.01
  YS02001929YS02001926        0.01      0.01      0.01      0.01         0.01
  YS02006553YS02006556        0.43      0.43      0.51      0.01         0.01
  YS02006556YS02006558        0.47      0.47      0.52      0.01         0.01
  YS02006558YS02006561        0.23      0.42      0.23      0.60         0.23
  YS02006561YS02001783        0.16      0.16      0.33      0.01         0.01
  YS02163301YS02001633        0.58      0.58      0.61      0.01         0.01
  YS02163601YS02164001        0.50      0.50      0.62      0.30         0.01
  YS02164001YS02001641        0.49      0.50      0.49      0.68         0.49
  YSB1154YSB6556              0.54      0.54      0.69      0.01         0.01
  YSB1171HS02004479           0.45      0.45      0.70      0.01         0.01
  YSB1174YSB1171              0.60      0.60      0.94      0.01         0.01
  YSB6556YSB1171              0.54      0.54      1.11      0.01         0.01
  
  
  ***************
  Pumping Summary
  ***************
  
  ---------------------------------------------------------------------------------------------------------
                                                  Min       Avg       Max     Total     Power    % Time Off
                        Percent   Number of      Flow      Flow      Flow    Volume     Usage    Pump Curve
  Pump                 Utilized   Start-Ups       LPS       LPS       LPS  10^6 ltr     Kw-hr    Low   High
  ---------------------------------------------------------------------------------------------------------
  CC-R1                    1.94           7      0.00   2394.75   3415.00     1.084     17.93    0.0  100.0
  CC-R2                    6.54          37      0.00   3190.25   3415.00     5.615     93.02    0.0  100.0
  CC-S1                    5.73          31      0.00    906.42   1000.00     1.391     13.54    0.0    0.0
  CC-S2                    4.39          20      0.00    899.86   1000.00     1.025      9.99    0.0    0.0
  JK-R1                    1.99          22      0.00   2267.69   5000.00     1.295     11.65    0.0    0.0
  JK-R2                    1.04          21      0.00   4508.77   5000.00     1.305     10.47    0.0    0.0
  JK-S                     3.53          30      0.00    510.18   1500.00     0.563      9.71    0.0    0.0
  XR-1                    97.91           2      0.00     95.00     95.00     2.679      9.61    0.0    0.0
  XR-2                    93.94           2      0.00     95.00     95.00     2.570      8.77    0.0    0.0
  XR-3                     0.00           1      0.00     95.00     95.00     0.000      0.00    0.0    0.0
  XR-4                     0.00           1      0.00     95.00     95.00     0.000      0.00    0.0    0.0
  

  Analysis begun on:  Wed Jul 12 21:34:15 2023
  Analysis ended on:  Wed Jul 12 21:34:32 2023
  Total elapsed time: 00:00:17