
  OWA STORM WATER MANAGEMENT MODEL - VERSION v5.1.14 (OWA 2022-07-31)
  --------------------------------------------------------------

  WARNING 04: minimum elevation drop used for Conduit WS02004404WS02004405
  WARNING 03: negative offset ignored for Link YS02001904YS02001907
  
  *********************************************************
  NOTE: The summary statistics displayed in this report are
  based on results found at every computational time step,  
  not just on results from each reporting time step.
  *********************************************************
  
  ****************
  Analysis Options
  ****************
  Flow Units ............... LPS
  Process Models:
    Rainfall/Runoff ........ YES
    RDII ................... NO
    Snowmelt ............... NO
    Groundwater ............ NO
    Flow Routing ........... YES
    Ponding Allowed ........ NO
    Water Quality .......... NO
  Infiltration Method ...... HORTON
  Flow Routing Method ...... DYNWAVE
  Surcharge Method ......... EXTRAN
  Starting Date ............ 08/28/2015 08:00:00
  Ending Date .............. 08/28/2015 16:00:00
  Antecedent Dry Days ...... 8.0
  Report Time Step ......... 00:01:00
  Wet Time Step ............ 00:01:00
  Dry Time Step ............ 00:01:00
  Routing Time Step ........ 30.00 sec
  Variable Time Step ....... YES
  Maximum Trials ........... 8
  Number of Threads ........ 1
  Head Tolerance ........... 0.001500 m
  
  
  **************************        Volume         Depth
  Runoff Quantity Continuity     hectare-m            mm
  **************************     ---------       -------
  Initial LID Storage ......         0.072         1.184
  Total Precipitation ......         2.627        43.363
  Evaporation Loss .........         0.000         0.000
  Infiltration Loss ........         0.195         3.212
  Surface Runoff ...........         1.942        32.060
  Final Storage ............         0.564         9.303
  Continuity Error (%) .....        -0.061
  
  
  **************************        Volume        Volume
  Flow Routing Continuity        hectare-m      10^6 ltr
  **************************     ---------     ---------
  Dry Weather Inflow .......         0.630         6.296
  Wet Weather Inflow .......         1.942        19.422
  Groundwater Inflow .......         0.000         0.000
  RDII Inflow ..............         0.000         0.000
  External Inflow ..........         0.105         1.045
  External Outflow .........         1.953        19.531
  Flooding Loss ............         0.716         7.155
  Evaporation Loss .........         0.000         0.000
  Exfiltration Loss ........         0.000         0.000
  Initial Stored Volume ....         0.303         3.031
  Final Stored Volume ......         0.321         3.215
  Continuity Error (%) .....        -0.361
  
  
  *************************
  Highest Continuity Errors
  *************************
  Node YS02001583 (-5.95%)
  Node YS02001884 (5.24%)
  Node WS02006256 (-2.58%)
  Node HS02004842 (2.22%)
  Node YS02001774 (1.74%)
  
  
  ***************************
  Time-Step Critical Elements
  ***************************
  Link WS02006280WS02006229 (45.98%)
  Link WS02006252WS02006251 (17.45%)
  Link WS02006238WS02006235 (14.44%)
  Link WS02004404WS02004405 (6.54%)
  Link YS02001791YS02001793 (4.02%)
  
  
  ********************************
  Highest Flow Instability Indexes
  ********************************
  Link WS02006113WS02006111 (24)
  Link WS02006256WS02006235 (22)
  Link WS02006238WS02006235 (20)
  Link WS02004404WS02004405 (19)
  Link WS02006252WS02006251 (19)
  
  
  *************************
  Routing Time Step Summary
  *************************
  Minimum Time Step           :     0.01 sec
  Average Time Step           :     2.54 sec
  Maximum Time Step           :     6.46 sec
  Percent in Steady State     :    -0.00
  Average Iterations per Step :     3.58
  Percent Not Converging      :    16.44
  
  
  ***************************
  Subcatchment Runoff Summary
  ***************************
  
  ------------------------------------------------------------------------------------------------------------------------------
                            Total      Total      Total      Total     Imperv       Perv      Total       Total     Peak  Runoff
                           Precip      Runon       Evap      Infil     Runoff     Runoff     Runoff      Runoff   Runoff   Coeff
  Subcatchment                 mm         mm         mm         mm         mm         mm         mm    10^6 ltr      LPS
  ------------------------------------------------------------------------------------------------------------------------------
  sub0                      43.36       0.00       0.00       0.94      39.08       2.10      41.18        0.03    28.41   0.950
  sub1                      43.36       0.00       0.00       1.43      33.48       2.85      36.32        0.24   174.33   0.838
  sub10                     43.36       0.00       0.00       0.91      31.38       1.91      33.29        0.37   275.58   0.768
  sub11                     43.36       0.00       0.00       0.83      29.16       1.79      30.96        0.36   287.27   0.714
  sub12                     43.36       0.00       0.00       1.45      29.65       3.13      32.78        0.29   243.68   0.756
  sub14                     43.36       0.00       0.00       0.90      27.62       1.92      29.54        0.28   221.49   0.681
  sub15                     43.36       0.00       0.00       4.17      24.83       6.83      31.65        0.54   387.43   0.730
  sub16                     43.36       0.00       0.00       4.40      24.22       7.92      32.14        0.34   265.68   0.741
  sub17                     43.36       0.00       0.00       4.72      26.73       8.27      35.00        0.30   230.26   0.807
  sub2                      43.36       0.00       0.00       6.58      24.46       8.28      32.74        0.31   180.04   0.755
  sub22                     43.36       0.00       0.00       7.40      23.18      10.66      33.84        2.14  1424.69   0.780
  sub23                     43.36       0.00       0.00       5.56      23.87       8.92      32.79        1.56  1127.09   0.756
  sub3                      43.36       0.00       0.00       7.01      24.22       7.71      31.93        0.72   384.36   0.736
  sub4                      43.36       0.00       0.00       1.58      32.93       2.64      35.57        0.74   416.57   0.820
  sub5                      43.36       0.00       0.00       0.81      32.39       1.71      34.10        0.39   283.26   0.786
  sub60                     43.36       0.00       0.00       1.29      28.53       2.72      31.25        0.41   331.83   0.721
  sub61                     43.36       0.00       0.00       1.99      28.50       4.04      32.54        0.60   483.46   0.750
  sub62                     43.36       0.00       0.00       0.88      30.38       1.85      32.23        0.88   658.14   0.743
  sub63                     43.36       0.00       0.00       3.69      24.41       6.61      31.02        0.70   543.59   0.715
  sub64                     43.36       0.00       0.00       1.76      27.79       3.30      31.09        0.75   531.13   0.717
  sub65                     43.36       0.00       0.00       1.62      29.98       3.01      33.00        0.91   615.86   0.761
  sub66                     43.36       0.00       0.00       4.34      23.58       5.64      29.22        1.36   785.54   0.674
  sub67                     43.36       0.00       0.00       0.87      31.15       1.93      33.08        0.62   515.20   0.763
  sub68                     43.36       0.00       0.00       1.53      27.51       3.10      30.60        0.84   658.01   0.706
  sub69                     43.36       0.00       0.00       1.39      29.13       3.76      32.90        1.22   797.80   0.759
  sub7                      43.36       0.00       0.00       0.95      29.61       2.07      31.68        0.11    86.76   0.730
  sub70                     43.36       0.00       0.00       4.73      23.32       7.34      30.66        0.89   451.77   0.707
  sub71                     43.36       0.00       0.00       0.81      27.59       1.67      29.26        0.77   538.13   0.675
  sub72                     43.36       0.00       0.00       0.78      29.79       1.54      31.33        0.43   273.96   0.723
  sub8                      43.36       0.00       0.00       0.93      28.77       2.00      30.77        0.20   155.73   0.710
  sub9                      43.36       0.00       0.00       0.91      27.89       1.94      29.83        0.14   113.45   0.688
  

  ***********************
  LID Performance Summary
  ***********************

  --------------------------------------------------------------------------------------------------------------------
                                         Total      Evap     Infil   Surface    Drain    Initial     Final  Continuity
                                        Inflow      Loss      Loss   Outflow   Outflow   Storage   Storage       Error
  Subcatchment      LID Control             mm        mm        mm        mm        mm        mm        mm           %
  --------------------------------------------------------------------------------------------------------------------
  sub1              GreenRoof            43.36      0.00      0.00      0.00      0.00      7.05     50.52       -0.21
  sub10             GreenRoof            43.36      0.00      0.00      0.00      0.00      7.05     50.52       -0.21
  sub11             GreenRoof            43.36      0.00      0.00      0.00      0.00      7.05     50.52       -0.21
  sub12             GreenRoof            43.36      0.00      0.00      0.00      0.00      7.05     50.52       -0.21
  sub14             GreenRoof            43.36      0.00      0.00      0.00      0.00      7.05     50.52       -0.21
  sub15             GreenRoof            43.36      0.00      0.00      0.00      0.00      7.05     50.52       -0.21
  sub16             GreenRoof            43.36      0.00      0.00      0.00      0.00      7.05     50.52       -0.21
  sub17             GreenRoof            43.36      0.00      0.00      0.00      0.00      7.05     50.52       -0.21
  sub2              GreenRoof            43.36      0.00      0.00      0.00      0.00      7.05     50.52       -0.21
  sub22             GreenRoof            43.36      0.00      0.00      0.00      0.00      7.05     50.52       -0.21
  sub23             GreenRoof            43.36      0.00      0.00      0.00      0.00      7.05     50.52       -0.21
  sub3              GreenRoof            43.36      0.00      0.00      0.00      0.00      7.05     50.52       -0.21
  sub4              GreenRoof            43.36      0.00      0.00      0.00      0.00      7.05     50.52       -0.21
  sub5              GreenRoof            43.36      0.00      0.00      0.00      0.00      7.05     50.52       -0.21
  sub60             GreenRoof            43.36      0.00      0.00      0.00      0.00      7.05     50.52       -0.21
  sub61             GreenRoof            43.36      0.00      0.00      0.00      0.00      7.05     50.52       -0.21
  sub62             GreenRoof            43.36      0.00      0.00      0.00      0.00      7.05     50.52       -0.21
  sub63             GreenRoof            43.36      0.00      0.00      0.00      0.00      7.05     50.52       -0.21
  sub64             GreenRoof            43.36      0.00      0.00      0.00      0.00      7.05     50.52       -0.21
  sub65             GreenRoof            43.36      0.00      0.00      0.00      0.00      7.05     50.52       -0.21
  sub66             GreenRoof            43.36      0.00      0.00      0.00      0.00      7.05     50.52       -0.21
  sub67             GreenRoof            43.36      0.00      0.00      0.00      0.00      7.05     50.52       -0.21
  sub68             GreenRoof            43.36      0.00      0.00      0.00      0.00      7.05     50.52       -0.21
  sub69             GreenRoof            43.36      0.00      0.00      0.00      0.00      7.05     50.52       -0.21
  sub7              GreenRoof            43.36      0.00      0.00      0.00      0.00      7.05     50.52       -0.21
  sub70             GreenRoof            43.36      0.00      0.00      0.00      0.00      7.05     50.52       -0.21
  sub71             GreenRoof            43.36      0.00      0.00      0.00      0.00      7.05     50.52       -0.21
  sub72             GreenRoof            43.36      0.00      0.00      0.00      0.00      7.05     50.52       -0.21
  sub8              GreenRoof            43.36      0.00      0.00      0.00      0.00      7.05     50.52       -0.21
  sub9              GreenRoof            43.36      0.00      0.00      0.00      0.00      7.05     50.52       -0.21
  
  ******************
  Node Depth Summary
  ******************
  
  ---------------------------------------------------------------------------------
                                 Average  Maximum  Maximum  Time of Max    Reported
                                   Depth    Depth      HGL   Occurrence   Max Depth
  Node                 Type       Meters   Meters   Meters  days hr:min      Meters
  ---------------------------------------------------------------------------------
  HS02004478           JUNCTION     0.18     1.58    10.80     0  02:23        1.51
  HS02004479           JUNCTION     0.26     1.69    10.89     0  02:23        1.66
  HS02004480           JUNCTION     0.23     1.67    10.91     0  02:23        1.62
  HS02004770           JUNCTION     0.23     1.42    11.25     0  02:20        1.42
  HS02004777           JUNCTION     0.26     1.48    11.28     0  02:20        1.45
  HS02004785           JUNCTION     0.15     1.49    11.39     0  02:20        1.34
  HS02004788           JUNCTION     0.12     1.42    11.32     0  02:20        1.34
  HS02004792           JUNCTION     0.17     1.60    11.12     0  02:20        1.60
  HS02004799           JUNCTION     0.28     1.76    10.97     0  02:23        1.76
  HS02004802           JUNCTION     0.28     1.82    10.95     0  02:23        1.65
  HS02004807           JUNCTION     0.25     1.92    11.09     0  02:23        1.70
  HS02004817           JUNCTION     0.55     2.44    11.29     0  02:23        2.05
  HS02004824           JUNCTION     0.12     2.01    11.41     0  02:23        1.54
  HS02004830           JUNCTION     0.13     2.03    11.50     0  02:23        1.47
  HS02004837           JUNCTION     0.10     2.03    11.61     0  02:23        1.37
  HS02004842           JUNCTION     0.39     2.22    11.49     0  02:23        1.68
  HS02004848           JUNCTION     0.08     2.04    11.65     0  02:23        1.35
  HS02004852           JUNCTION     0.08     2.12    11.63     0  02:23        1.40
  HS02004856           JUNCTION     0.14     2.07    11.50     0  02:23        1.45
  HS02004862           JUNCTION     0.10     2.00    11.38     0  02:23        1.44
  HS02004870           JUNCTION     0.09     2.10    11.39     0  02:23        1.44
  HS02004876           JUNCTION     0.14     2.04    11.07     0  02:23        1.56
  HS02004881           JUNCTION     0.08     2.15    11.18     0  02:23        1.39
  HS02004901           JUNCTION     0.24     1.42    11.24     0  02:20        1.42
  WS02001211           JUNCTION     0.62     0.80     5.64     0  02:28        0.80
  WS02001212           JUNCTION     0.37     0.56     5.63     0  02:29        0.56
  WS02001213           JUNCTION     0.58     0.86     5.62     0  02:27        0.86
  WS02003059           JUNCTION     0.65     0.93     5.62     0  02:27        0.93
  WS02003060           JUNCTION     0.37     0.68     5.61     0  02:27        0.68
  WS02003066           JUNCTION     0.22     0.45     6.00     0  02:25        0.45
  WS02003067           JUNCTION     0.53     0.88     6.20     0  02:25        0.88
  WS02003069           JUNCTION     0.41     0.77     5.35     0  02:28        0.77
  WS02003072           JUNCTION     0.47     0.80     5.17     0  02:28        0.80
  WS02003073           JUNCTION     0.28     0.51     4.57     0  02:29        0.51
  WS02004138           JUNCTION     0.13     0.14     7.39     0  00:29        0.14
  WS02004139           JUNCTION     0.56     0.74     5.65     0  02:28        0.74
  WS02004401           JUNCTION     0.73     1.86     7.86     0  02:20        1.86
  WS02004402           JUNCTION     0.74     1.76     7.72     0  02:20        1.74
  WS02004403           JUNCTION     0.75     1.68     7.61     0  02:25        1.68
  WS02004404           JUNCTION     0.82     1.69     7.54     0  02:24        1.67
  WS02004405           JUNCTION     0.81     1.64     7.49     0  02:25        1.63
  WS02004406           JUNCTION     0.80     1.53     7.36     0  02:26        1.53
  WS02004407           JUNCTION     0.24     0.89     7.20     0  02:25        0.88
  WS02004409           JUNCTION     0.50     1.36     7.13     0  02:25        1.35
  WS02004410           JUNCTION     0.51     1.28     7.00     0  02:25        1.26
  WS02004411           JUNCTION     0.52     1.19     6.87     0  02:25        1.18
  WS02004412           JUNCTION     0.52     1.09     6.73     0  02:25        1.09
  WS02004413           JUNCTION     0.66     1.14     6.61     0  02:25        1.14
  WS02006109           JUNCTION     0.91     2.64     9.26     0  02:20        2.64
  WS02006110           JUNCTION     0.85     2.37     8.96     0  02:24        2.37
  WS02006111           JUNCTION     0.37     1.77     8.48     0  02:20        1.77
  WS02006112           JUNCTION     0.92     2.41     8.30     0  02:20        2.41
  WS02006113           JUNCTION     0.45     1.80     8.69     0  02:20        1.79
  WS02006115           JUNCTION     0.64     1.93     8.07     0  02:20        1.91
  WS02006116           JUNCTION     0.71     2.08     8.12     0  02:20        2.08
  WS02006228           JUNCTION     0.95     3.02     9.67     0  02:23        3.01
  WS02006229           JUNCTION     0.95     3.21     9.90     0  02:23        3.19
  WS02006230           JUNCTION     0.90     2.65     9.39     0  02:17        2.65
  WS02006231           JUNCTION     0.64     2.24     9.36     0  02:20        2.24
  WS02006232           JUNCTION     0.73     2.18     9.22     0  02:17        2.18
  WS02006234           JUNCTION     0.62     1.96     9.12     0  02:15        1.96
  WS02006235           JUNCTION     0.64     2.00     9.16     0  02:45        1.94
  WS02006238           JUNCTION     0.66     2.07     9.22     0  02:45        1.94
  WS02006239           JUNCTION     0.61     1.92     9.13     0  02:45        1.79
  WS02006240           JUNCTION     0.56     1.80     9.09     0  02:05        1.63
  WS02006242           JUNCTION     0.60     1.55     8.82     0  02:05        1.55
  WS02006243           JUNCTION     0.49     1.48     8.90     0  02:05        1.37
  WS02006245           JUNCTION     0.48     1.42     8.91     0  02:06        1.29
  WS02006247           JUNCTION     0.49     1.47     8.97     0  02:05        1.24
  WS02006248           JUNCTION     0.43     1.10     8.69     0  02:05        1.10
  WS02006249           JUNCTION     0.46     1.09     8.69     0  02:06        1.09
  WS02006251           JUNCTION     0.52     2.21     9.88     0  02:23        2.07
  WS02006252           JUNCTION     0.34     1.50     9.74     0  00:00        1.50
  WS02006253           JUNCTION     0.58     3.52    11.16     0  02:23        2.71
  WS02006256           JUNCTION     1.04     2.35     9.28     0  00:00        2.35
  WS02006280           JUNCTION     0.25     1.72     9.99     0  02:23        1.70
  WS02006284           JUNCTION     0.51     1.92    10.32     0  02:23        1.89
  WS02006287           JUNCTION     0.25     1.73    10.68     0  02:23        1.66
  WSF200               JUNCTION     0.21     0.51     5.75     0  02:26        0.51
  YS02001580           JUNCTION     0.05     1.05     9.59     0  02:20        0.77
  YS02001583           JUNCTION     0.08     1.03     9.52     0  02:20        0.82
  YS02001586           JUNCTION     0.14     1.13     9.30     0  02:20        1.13
  YS02001590           JUNCTION     0.23     1.40     9.26     0  02:20        1.37
  YS02001593           JUNCTION     0.16     1.46     9.32     0  02:20        1.46
  YS02001596           JUNCTION     0.22     1.80     9.22     0  02:20        1.80
  YS02001600           JUNCTION     0.27     1.87     9.00     0  02:20        1.87
  YS02001601           JUNCTION     0.46     2.06     8.90     0  02:20        2.06
  YS02001602           JUNCTION     0.38     1.87     8.77     0  02:20        1.87
  YS02001605           JUNCTION     0.36     1.78     8.68     0  02:20        1.78
  YS02001607           JUNCTION     0.36     1.66     8.50     0  02:20        1.65
  YS02001610           JUNCTION     0.40     1.68     8.48     0  02:20        1.68
  YS02001613           JUNCTION     0.36     1.70     8.54     0  02:20        1.65
  YS02001616           JUNCTION     0.29     1.61     8.52     0  02:20        1.59
  YS02001619           JUNCTION     0.27     1.58     8.51     0  02:24        1.58
  YS02001622           JUNCTION     0.25     1.56     8.46     0  02:23        1.56
  YS02001625           JUNCTION     0.51     1.78     8.38     0  02:23        1.78
  YS02001629           JUNCTION     0.37     1.85     8.40     0  02:20        1.85
  YS02001633           JUNCTION     0.44     2.00     8.46     0  02:25        1.97
  YS02001641           JUNCTION     0.43     1.95     8.39     0  02:25        1.90
  YS02001644           JUNCTION     0.42     1.92     8.35     0  02:25        1.87
  YS02001647           JUNCTION     0.21     1.69     8.30     0  02:25        1.58
  YS02001649           JUNCTION     0.23     1.82     8.21     0  02:25        1.67
  YS02001652           JUNCTION     0.13     1.68     8.28     0  02:25        1.52
  YS02001655           JUNCTION     0.09     1.64     8.49     0  02:25        1.25
  YS02001658           JUNCTION     0.07     1.54     8.68     0  02:25        0.98
  YS02001661           JUNCTION     0.12     0.76     8.17     0  02:26        0.74
  YS02001664           JUNCTION     0.05     0.28     8.20     0  02:25        0.28
  YS02001745           JUNCTION     0.04     0.53     8.04     0  02:25        0.48
  YS02001748           JUNCTION     0.06     0.98     8.06     0  02:26        0.89
  YS02001751           JUNCTION     0.07     1.47     8.35     0  02:25        1.06
  YS02001754           JUNCTION     0.10     1.60     8.21     0  02:25        1.32
  YS02001757           JUNCTION     0.24     1.78     8.05     0  02:26        1.63
  YS02001759           JUNCTION     0.19     1.75     8.12     0  02:26        1.56
  YS02001762           JUNCTION     0.18     1.75     8.15     0  02:26        1.53
  YS02001765           JUNCTION     0.17     1.73     8.18     0  02:26        1.49
  YS02001767           JUNCTION     0.17     1.73     8.22     0  02:26        1.47
  YS02001770           JUNCTION     0.18     1.83     8.32     0  02:24        1.49
  YS02001774           JUNCTION     0.24     1.92     8.35     0  02:24        1.57
  YS02001779           JUNCTION     0.08     1.68     8.37     0  02:24        1.31
  YS02001783           JUNCTION     0.19     1.31     7.45     0  02:23        1.21
  YS02001784           JUNCTION     0.21     1.18     7.25     0  02:23        1.10
  YS02001786           JUNCTION     0.18     0.91     6.94     0  02:23        0.88
  YS02001788           JUNCTION     0.13     0.62     6.60     0  02:24        0.62
  YS02001790           JUNCTION     0.16     0.72     6.37     0  02:26        0.70
  YS02001791           JUNCTION     0.10     0.43     5.90     0  02:25        0.42
  YS02001793           JUNCTION     0.05     0.28     5.11     0  02:25        0.27
  YS02001882           JUNCTION     0.24     1.70     8.42     0  02:23        1.67
  YS02001884           JUNCTION     0.33     1.79     8.40     0  02:23        1.77
  YS02001887           JUNCTION     0.41     1.84     8.38     0  02:23        1.83
  YS02001890           JUNCTION     0.44     1.81     8.32     0  02:23        1.81
  YS02001895           JUNCTION     0.21     1.58     8.33     0  02:23        1.58
  YS02001898           JUNCTION     0.22     1.60     8.33     0  02:24        1.60
  YS02001901           JUNCTION     0.33     1.71     8.32     0  02:24        1.71
  YS02001904           JUNCTION     0.31     1.66     8.29     0  02:24        1.66
  YS02001907           JUNCTION     0.62     1.96     8.25     0  02:23        1.96
  YS02001910           JUNCTION     0.42     1.97     8.48     0  02:24        1.83
  YS02001915           JUNCTION     0.24     1.91     8.63     0  02:24        1.70
  YS02001918           JUNCTION     0.11     1.81     8.88     0  02:24        1.40
  YS02001920           JUNCTION     0.19     2.14     9.15     0  02:24        1.49
  YS02001923           JUNCTION     0.08     2.03     9.29     0  02:24        1.25
  YS02001926           JUNCTION     0.12     1.90     9.35     0  02:24        1.10
  YS02001929           JUNCTION     0.06     1.78     9.47     0  02:24        0.90
  YS02006553           JUNCTION     0.63     1.98     8.27     0  02:23        1.96
  YS02006556           JUNCTION     0.60     1.97     8.28     0  02:23        1.92
  YS02006558           JUNCTION     0.64     2.02     8.29     0  02:23        1.96
  YS02006561           JUNCTION     0.12     0.98     7.64     0  02:23        0.91
  YS02163301           JUNCTION     0.39     1.91     8.43     0  02:25        1.89
  YS02163601           JUNCTION     0.48     2.04     8.43     0  02:25        1.99
  YS02164001           JUNCTION     0.41     1.95     8.41     0  02:25        1.91
  YSB1154              JUNCTION     0.39     1.88    10.94     0  02:24        1.88
  YSB1171              JUNCTION     0.54     1.95    10.85     0  02:23        1.95
  YSB1174              JUNCTION     0.35     1.79    10.90     0  02:24        1.79
  YSB6556              JUNCTION     0.29     1.72    10.89     0  02:25        1.72
  CC-1                 OUTFALL      0.00     0.00     0.00     0  00:00        0.00
  CC-2                 OUTFALL      0.00     0.00     0.00     0  00:00        0.00
  JK-1                 OUTFALL      0.00     0.00     0.00     0  00:00        0.00
  JK-2                 OUTFALL      0.00     0.00     0.00     0  00:00        0.00
  WSC                  OUTFALL      0.28     0.51     1.18     0  02:29        0.51
  CC-storage           STORAGE      0.68     1.23     6.73     0  02:50        1.23
  JK-storage           STORAGE      1.59     4.22     5.02     0  02:22        4.17
  XR-storage           STORAGE      7.86     9.26     7.26     0  08:00        9.26
  
  
  *******************
  Node Inflow Summary
  *******************
  
  -------------------------------------------------------------------------------------------------
                                  Maximum  Maximum                  Lateral       Total        Flow
                                  Lateral    Total  Time of Max      Inflow      Inflow     Balance
                                   Inflow   Inflow   Occurrence      Volume      Volume       Error
  Node                 Type           LPS      LPS  days hr:min    10^6 ltr    10^6 ltr     Percent
  -------------------------------------------------------------------------------------------------
  HS02004478           JUNCTION      0.00  2251.73     0  02:25           0           6      -0.009
  HS02004479           JUNCTION      0.00   459.80     0  02:23           0       0.607       0.165
  HS02004480           JUNCTION      0.00  2111.81     0  02:21           0        4.65       0.061
  HS02004770           JUNCTION   1127.09  1127.09     0  02:25        1.56        1.75       0.177
  HS02004777           JUNCTION      0.03   752.69     0  02:20    0.000864         1.4       0.377
  HS02004785           JUNCTION      0.15   770.70     0  02:20     0.00432         1.4       0.031
  HS02004788           JUNCTION    389.10   865.39     0  02:20       0.593        1.99      -0.003
  HS02004792           JUNCTION   1424.97  2154.09     0  02:25        2.15        4.13       0.005
  HS02004799           JUNCTION    221.49  1772.83     0  02:21       0.281        4.06       0.065
  HS02004802           JUNCTION      0.00   744.09     0  02:25           0        1.38       0.285
  HS02004807           JUNCTION    287.27   743.80     0  02:25        0.36        1.43       0.291
  HS02004817           JUNCTION      0.60   470.05     0  02:25      0.0173        1.12       1.470
  HS02004824           JUNCTION    416.62   651.18     0  02:21       0.743        1.26       0.039
  HS02004830           JUNCTION      0.15   660.65     0  02:20     0.00432       0.663       0.214
  HS02004837           JUNCTION    281.93   835.71     0  02:21        0.55       0.893       0.061
  HS02004842           JUNCTION      0.00   839.73     0  02:21           0       0.578       2.274
  HS02004848           JUNCTION    384.36  1087.60     0  02:22       0.719        1.15      -0.013
  HS02004852           JUNCTION      0.00  1083.34     0  02:23           0        1.01      -0.016
  HS02004856           JUNCTION    113.45  1185.15     0  02:23       0.143        1.16       0.075
  HS02004862           JUNCTION    180.24  1277.65     0  02:23       0.311        1.46      -0.032
  HS02004870           JUNCTION    155.73  1349.44     0  02:23       0.197        1.66       0.011
  HS02004876           JUNCTION    174.33  1401.09     0  02:23       0.242         1.9       0.030
  HS02004881           JUNCTION     86.76  1456.73     0  02:23       0.107        2.01       0.022
  HS02004901           JUNCTION    265.68   481.08     0  02:26       0.337        0.47       0.386
  WS02001211           JUNCTION      7.35   206.57     0  02:51       0.212        5.44       0.612
  WS02001212           JUNCTION      0.00   215.74     0  02:51           0        5.41       0.290
  WS02001213           JUNCTION      0.00   222.17     0  02:50           0        5.39       0.333
  WS02003059           JUNCTION      0.00   228.76     0  02:50           0        5.38       0.597
  WS02003060           JUNCTION     16.53  1475.88     0  02:27       0.476        12.7       0.118
  WS02003066           JUNCTION      0.00  1278.02     0  02:26           0         6.9       0.023
  WS02003067           JUNCTION      0.00  1277.76     0  02:25           0         6.9       0.066
  WS02003069           JUNCTION      0.32  1475.99     0  02:27     0.00922        12.7       0.124
  WS02003072           JUNCTION      0.00  1475.92     0  02:28           0        12.7       0.167
  WS02003073           JUNCTION      1.82  1477.88     0  02:28      0.0524        12.7       0.174
  WS02004138           JUNCTION      0.00   380.00     0  00:00           0        5.25       0.054
  WS02004139           JUNCTION      0.32   191.06     0  00:29     0.00924        5.26       0.508
  WS02004401           JUNCTION      0.00  1279.56     0  02:25           0        7.01       0.158
  WS02004402           JUNCTION      0.00  1279.42     0  02:25           0           7       0.159
  WS02004403           JUNCTION      0.00  1279.04     0  02:25           0        6.99       0.154
  WS02004404           JUNCTION      0.16  1280.31     0  02:25     0.00467        6.98       0.138
  WS02004405           JUNCTION      0.04  1280.29     0  02:25      0.0011        6.98       0.180
  WS02004406           JUNCTION      0.00  1280.02     0  02:25           0        6.96       0.315
  WS02004407           JUNCTION      0.00  1280.39     0  02:25           0        6.94       0.025
  WS02004409           JUNCTION      0.00  1277.21     0  02:25           0        6.94       0.053
  WS02004410           JUNCTION      0.00  1277.66     0  02:25           0        6.94       0.077
  WS02004411           JUNCTION      0.00  1277.42     0  02:25           0        6.93       0.095
  WS02004412           JUNCTION      0.00  1277.27     0  02:25           0        6.92       0.122
  WS02004413           JUNCTION      0.00  1277.55     0  02:25           0        6.92       0.209
  WS02006109           JUNCTION      1.23  1261.84     0  02:25      0.0354        6.86       0.151
  WS02006110           JUNCTION      0.00  1118.70     0  02:33           0        6.76       0.119
  WS02006111           JUNCTION      0.00  1118.84     0  02:33           0        6.75       0.012
  WS02006112           JUNCTION    230.26  1278.40     0  02:25         0.3        7.04       0.273
  WS02006113           JUNCTION      0.00  1118.80     0  02:33           0        6.75       0.031
  WS02006115           JUNCTION      0.00  1278.51     0  02:24           0        7.03       0.108
  WS02006116           JUNCTION      0.00  1279.28     0  02:25           0        7.02       0.083
  WS02006228           JUNCTION      0.00  1260.98     0  02:25           0        6.83       0.072
  WS02006229           JUNCTION      0.00  2252.36     0  02:25           0        8.16       0.112
  WS02006230           JUNCTION     10.28   999.84     0  02:25       0.296        3.52       0.250
  WS02006231           JUNCTION      0.00   497.65     0  03:20           0        2.76      -0.147
  WS02006232           JUNCTION      0.00   498.36     0  03:20           0        2.77       0.344
  WS02006234           JUNCTION      0.00   499.19     0  03:20           0        2.76      -0.319
  WS02006235           JUNCTION      0.00   499.90     0  03:20           0        2.87       0.372
  WS02006238           JUNCTION      0.00   417.52     0  03:24           0        2.43      -0.174
  WS02006239           JUNCTION      0.00   415.77     0  03:24           0        2.37      -0.226
  WS02006240           JUNCTION      0.00   415.04     0  02:23           0        2.35       0.010
  WS02006242           JUNCTION      0.00   416.14     0  03:24           0        2.33      -0.015
  WS02006243           JUNCTION      0.00   417.01     0  03:24           0        2.07      -0.229
  WS02006245           JUNCTION      0.00   417.95     0  03:24           0        2.08       0.753
  WS02006247           JUNCTION      0.00   418.86     0  03:24           0        2.08      -0.133
  WS02006248           JUNCTION      0.00   419.43     0  03:24           0        2.25      -0.344
  WS02006249           JUNCTION      0.00  1329.51     0  02:23           0        4.23       0.426
  WS02006251           JUNCTION      0.08  1490.73     0  02:23     0.00222        4.32      -0.066
  WS02006252           JUNCTION      0.00   400.00     0  00:00           0        2.27      -0.727
  WS02006253           JUNCTION     28.41  1487.53     0  02:23      0.0334        2.12       0.089
  WS02006256           JUNCTION      0.00   300.00     0  00:00           0        1.32      -2.519
  WS02006280           JUNCTION      0.00  2250.51     0  02:25           0        5.98       0.013
  WS02006284           JUNCTION      0.10  2249.66     0  02:25     0.00275        5.98      -0.004
  WS02006287           JUNCTION      0.00  2249.38     0  02:25           0        5.98       0.014
  WSF200               JUNCTION      0.00  1278.18     0  02:26           0        6.89       0.014
  YS02001580           JUNCTION      0.00   113.70     0  02:20           0     0.00398      -5.333
  YS02001583           JUNCTION      0.00   176.31     0  02:20           0      0.0147      -5.617
  YS02001586           JUNCTION    451.77   451.77     0  02:26       0.886       0.897       0.135
  YS02001590           JUNCTION      0.00   318.03     0  02:30           0       0.832      -0.054
  YS02001593           JUNCTION      0.00   317.99     0  02:29           0       0.833       0.021
  YS02001596           JUNCTION      0.00   317.95     0  02:29           0       0.832      -0.001
  YS02001600           JUNCTION      0.00   318.01     0  02:30           0       0.832       0.018
  YS02001601           JUNCTION    797.80  1115.13     0  02:25        1.22        2.05       0.037
  YS02001602           JUNCTION      0.00   517.24     0  02:20           0        1.59       0.024
  YS02001605           JUNCTION      0.00   516.59     0  02:20           0        1.54       0.015
  YS02001607           JUNCTION      0.00   516.26     0  02:20           0        1.54       0.116
  YS02001610           JUNCTION      0.00   514.39     0  02:20           0        1.54       0.134
  YS02001613           JUNCTION      0.00   515.82     0  02:19           0        1.43       0.104
  YS02001616           JUNCTION      0.00   515.85     0  02:19           0        1.42       0.023
  YS02001619           JUNCTION    785.54   940.04     0  02:22        1.36        2.79      -0.007
  YS02001622           JUNCTION      0.00   954.96     0  02:20           0        2.79       0.002
  YS02001625           JUNCTION      0.00   964.32     0  02:20           0        2.78       0.317
  YS02001629           JUNCTION      0.00   966.41     0  02:20           0        2.61       0.028
  YS02001633           JUNCTION    616.06  1423.56     0  02:23       0.914        3.52       0.100
  YS02001641           JUNCTION      0.00  1416.32     0  02:22           0        3.52       0.079
  YS02001644           JUNCTION    531.16  1847.96     0  02:23       0.748        4.26       0.078
  YS02001647           JUNCTION      0.00  1845.71     0  02:23           0        4.25       0.007
  YS02001649           JUNCTION      0.00  2139.41     0  02:23           0        4.96       0.005
  YS02001652           JUNCTION      0.00   611.70     0  02:27           0       0.708      -0.126
  YS02001655           JUNCTION      0.15   611.29     0  02:27     0.00443       0.708       0.015
  YS02001658           JUNCTION      0.00   735.32     0  02:25           0       0.704       0.009
  YS02001661           JUNCTION      0.00   543.77     0  02:25           0       0.704       0.039
  YS02001664           JUNCTION    543.59   543.59     0  02:25       0.704       0.704      -0.007
  YS02001745           JUNCTION    331.83   331.83     0  02:25       0.411       0.411       0.320
  YS02001748           JUNCTION      0.04   518.73     0  02:26      0.0013       0.411      -0.428
  YS02001751           JUNCTION      0.01   491.73     0  02:27    0.000317       0.418       0.021
  YS02001754           JUNCTION      0.26   391.08     0  02:27     0.00749       0.429      -0.352
  YS02001757           JUNCTION      0.00  3263.71     0  02:26           0        6.88       0.096
  YS02001759           JUNCTION    483.50  1199.29     0  02:24       0.598         1.5       0.001
  YS02001762           JUNCTION      0.00   716.85     0  02:24           0       0.901       0.040
  YS02001765           JUNCTION      0.00   706.16     0  02:24           0       0.901       0.026
  YS02001767           JUNCTION      0.54   697.45     0  02:24      0.0154       0.901      -0.003
  YS02001770           JUNCTION    658.29   688.37     0  02:24       0.887       0.929       0.020
  YS02001774           JUNCTION      0.00   301.02     0  02:24           0      0.0598       1.767
  YS02001779           JUNCTION      0.01   305.52     0  02:24    0.000144      0.0175      -3.631
  YS02001783           JUNCTION      0.00  1153.28     0  02:24           0        2.51       0.009
  YS02001784           JUNCTION      1.06  1154.71     0  02:24      0.0305        2.54       0.020
  YS02001786           JUNCTION      0.06  1154.02     0  02:24     0.00162        2.54       0.025
  YS02001788           JUNCTION      0.07  1154.43     0  02:24     0.00204        2.55       0.011
  YS02001790           JUNCTION      0.15  1173.41     0  02:24     0.00446        2.55       0.025
  YS02001791           JUNCTION      0.00  1279.41     0  02:26           0        2.55      -0.014
  YS02001793           JUNCTION      0.00  1228.94     0  02:27           0        2.55       0.009
  YS02001882           JUNCTION      0.00    58.25     0  02:22           0      0.0122       5.528
  YS02001884           JUNCTION      0.00    81.10     0  02:22           0      0.0479       5.529
  YS02001887           JUNCTION    515.65   515.65     0  02:25       0.628       0.661       0.679
  YS02001890           JUNCTION      0.00   516.04     0  02:25           0       0.621       0.831
  YS02001895           JUNCTION      0.00   493.19     0  02:25           0       0.612       0.245
  YS02001898           JUNCTION      0.00   493.87     0  02:25           0        0.61       0.046
  YS02001901           JUNCTION      0.00   494.32     0  02:25           0       0.613       0.520
  YS02001904           JUNCTION      0.00   495.77     0  02:23           0       0.616       0.459
  YS02001907           JUNCTION      0.00  1484.93     0  02:25           0        1.89       0.960
  YS02001910           JUNCTION      0.00   994.88     0  02:25           0        1.28       0.560
  YS02001915           JUNCTION    538.15   993.86     0  02:25       0.766        1.32       0.111
  YS02001918           JUNCTION      0.00   456.82     0  02:25           0       0.582       0.021
  YS02001920           JUNCTION      2.87   456.32     0  02:25      0.0827       0.565       0.170
  YS02001923           JUNCTION      0.04   411.64     0  02:24     0.00109       0.466      -0.272
  YS02001926           JUNCTION      0.05   623.13     0  02:24      0.0015       0.447      -0.144
  YS02001929           JUNCTION    273.96   503.99     0  02:24       0.431       0.434      -0.154
  YS02006553           JUNCTION      0.00   799.80     0  02:31           0        1.69       0.702
  YS02006556           JUNCTION      0.00   800.15     0  02:31           0        1.69       0.481
  YS02006558           JUNCTION    658.89  1163.52     0  02:23       0.868        2.54       0.137
  YS02006561           JUNCTION      0.00  1162.11     0  02:23           0        2.51       0.002
  YS02163301           JUNCTION      0.00   938.30     0  02:22           0        2.61       0.062
  YS02163601           JUNCTION      0.11  1422.18     0  02:23     0.00317        3.52       0.140
  YS02164001           JUNCTION      0.00  1420.05     0  02:23           0        3.51       0.071
  YSB1154              JUNCTION    283.26   283.26     0  02:25       0.386       0.387       0.389
  YSB1171              JUNCTION      0.00   529.06     0  02:25           0       0.681       0.955
  YSB1174              JUNCTION    243.68   243.68     0  02:25       0.287       0.287       0.448
  YSB6556              JUNCTION      0.00   283.54     0  02:25           0       0.388       0.321
  CC-1                 OUTFALL       0.00   683.00     0  00:00           0        2.93       0.000
  CC-2                 OUTFALL       0.00   683.00     0  00:00           0        2.55       0.000
  JK-1                 OUTFALL       0.00  1000.00     0  00:00           0         1.3       0.000
  JK-2                 OUTFALL       0.00  1000.00     0  00:00           0      0.0579       0.000
  WSC                  OUTFALL       0.00  1478.32     0  02:29           0        12.7       0.000
  CC-storage           STORAGE       0.00  3269.74     0  02:26           0         9.1      -0.318
  JK-storage           STORAGE       0.00  1223.29     0  02:31           0         2.7      -0.640
  XR-storage           STORAGE     200.00   200.00     0  00:00        5.76        6.36       0.001
  
  
  **********************
  Node Surcharge Summary
  **********************
  
  Surcharging occurs when water rises above the top of the highest conduit.
  ---------------------------------------------------------------------
                                               Max. Height   Min. Depth
                                   Hours       Above Crown    Below Rim
  Node                 Type      Surcharged         Meters       Meters
  ---------------------------------------------------------------------
  HS02004478           JUNCTION        0.25          0.656        0.284
  HS02004479           JUNCTION        0.36          0.889        0.161
  HS02004480           JUNCTION        0.39          0.961        0.139
  HS02004770           JUNCTION        0.31          0.720        0.000
  HS02004777           JUNCTION        0.32          0.780        0.000
  HS02004785           JUNCTION        0.28          0.790        0.000
  HS02004788           JUNCTION        0.27          0.720        0.000
  HS02004792           JUNCTION        0.36          0.900        0.000
  HS02004799           JUNCTION        0.46          1.060        0.000
  HS02004802           JUNCTION        0.39          1.109        0.101
  HS02004807           JUNCTION        0.38          1.220        0.000
  HS02004817           JUNCTION        0.80          1.738        0.002
  HS02004824           JUNCTION        0.27          1.310        0.000
  HS02004830           JUNCTION        0.25          1.330        0.000
  HS02004837           JUNCTION        0.22          1.328        0.012
  HS02004842           JUNCTION        0.32          1.520        0.000
  HS02004848           JUNCTION        0.18          1.345        0.025
  HS02004852           JUNCTION        0.21          1.420        0.000
  HS02004856           JUNCTION        0.19          1.300        0.000
  HS02004862           JUNCTION        0.22          1.300        0.000
  HS02004870           JUNCTION        0.23          1.400        0.000
  HS02004876           JUNCTION        0.29          1.336        0.224
  HS02004881           JUNCTION        0.27          1.450        0.000
  HS02004901           JUNCTION        0.32          0.720        0.000
  WS02004401           JUNCTION        1.17          0.863        0.797
  WS02004402           JUNCTION        1.20          0.759        0.981
  WS02004403           JUNCTION        1.20          0.679        1.351
  WS02004404           JUNCTION        1.40          0.687        2.093
  WS02004405           JUNCTION        1.38          0.639        2.161
  WS02004406           JUNCTION        1.33          0.532        1.918
  WS02004409           JUNCTION        0.67          0.357        2.003
  WS02004410           JUNCTION        0.61          0.276        2.264
  WS02004411           JUNCTION        0.56          0.185        2.345
  WS02004412           JUNCTION        0.49          0.092        2.218
  WS02004413           JUNCTION        0.89          0.137        2.063
  WS02006109           JUNCTION        1.76          1.820        0.000
  WS02006110           JUNCTION        1.56          1.465        0.385
  WS02006111           JUNCTION        0.86          0.962        0.908
  WS02006112           JUNCTION        1.62          1.412        0.268
  WS02006113           JUNCTION        0.88          0.999        0.931
  WS02006115           JUNCTION        1.02          0.918        1.332
  WS02006116           JUNCTION        1.05          1.023        1.267
  WS02006228           JUNCTION        1.75          2.191        0.009
  WS02006229           JUNCTION        0.59          1.026        0.044
  WS02006230           JUNCTION        1.38          1.570        0.000
  WS02006231           JUNCTION        1.48          1.530        0.000
  WS02006232           JUNCTION        1.63          1.480        0.000
  WS02006234           JUNCTION        1.49          1.240        0.000
  WS02006235           JUNCTION        1.52          1.290        0.000
  WS02006238           JUNCTION        1.55          1.352        0.078
  WS02006239           JUNCTION        1.49          1.184        0.106
  WS02006240           JUNCTION        1.46          1.086        0.304
  WS02006242           JUNCTION        1.48          0.820        0.000
  WS02006243           JUNCTION        1.43          0.770        0.000
  WS02006245           JUNCTION        1.43          0.712        0.138
  WS02006247           JUNCTION        1.43          0.760        0.000
  WS02006248           JUNCTION        1.42          0.380        0.000
  WS02006249           JUNCTION        1.42          0.390        0.000
  WS02006251           JUNCTION        1.33          1.180        0.000
  WS02006252           JUNCTION        1.67          1.100        0.000
  WS02006253           JUNCTION        1.36          2.480        0.000
  WS02006256           JUNCTION        5.98          2.050        0.000
  WS02006280           JUNCTION        0.48          0.672        0.108
  WS02006284           JUNCTION        0.41          0.638        0.162
  WS02006287           JUNCTION        0.34          0.729        0.161
  YS02001580           JUNCTION        0.27          0.450        0.000
  YS02001583           JUNCTION        0.28          0.385        0.115
  YS02001586           JUNCTION        0.37          0.510        0.000
  YS02001590           JUNCTION        0.42          0.750        0.000
  YS02001593           JUNCTION        0.42          0.840        0.000
  YS02001596           JUNCTION        0.51          1.070        0.000
  YS02001600           JUNCTION        0.61          1.190        0.000
  YS02001601           JUNCTION        0.92          1.440        0.000
  YS02001602           JUNCTION        0.81          1.270        0.000
  YS02001605           JUNCTION        0.77          1.180        0.000
  YS02001607           JUNCTION        0.37          0.656        0.024
  YS02001610           JUNCTION        0.39          0.680        0.000
  YS02001613           JUNCTION        0.37          0.700        0.000
  YS02001616           JUNCTION        0.34          0.610        0.000
  YS02001619           JUNCTION        0.33          0.584        0.026
  YS02001622           JUNCTION        0.32          0.559        0.061
  YS02001625           JUNCTION        0.46          0.780        0.000
  YS02001629           JUNCTION        0.27          0.470        0.000
  YS02001633           JUNCTION        0.47          0.981        0.079
  YS02001641           JUNCTION        0.39          0.953        0.147
  YS02001644           JUNCTION        0.35          0.920        0.000
  YS02001647           JUNCTION        0.20          0.694        0.206
  YS02001649           JUNCTION        0.24          0.820        0.230
  YS02001652           JUNCTION        0.15          0.652        0.478
  YS02001655           JUNCTION        0.07          0.638        0.562
  YS02001658           JUNCTION        0.01          0.540        0.760
  YS02001751           JUNCTION        0.03          0.473        0.727
  YS02001754           JUNCTION        0.08          0.551        0.599
  YS02001757           JUNCTION        0.24          0.784        0.426
  YS02001759           JUNCTION        0.20          0.754        0.456
  YS02001762           JUNCTION        0.18          0.748        0.402
  YS02001765           JUNCTION        0.16          0.728        0.372
  YS02001767           JUNCTION        0.15          0.731        0.299
  YS02001770           JUNCTION        0.14          0.795        0.125
  YS02001774           JUNCTION        0.18          0.925        0.125
  YS02001779           JUNCTION        0.09          0.680        0.000
  YS02001783           JUNCTION        0.26          0.505        1.095
  YS02001784           JUNCTION        0.24          0.378        1.112
  YS02001786           JUNCTION        0.16          0.109        1.321
  YS02001882           JUNCTION        0.22          0.700        0.130
  YS02001884           JUNCTION        0.23          0.727        0.143
  YS02001887           JUNCTION        0.26          0.790        0.160
  YS02001890           JUNCTION        0.27          0.760        0.000
  YS02001895           JUNCTION        0.21          0.583        0.167
  YS02001898           JUNCTION        0.21          0.566        0.174
  YS02001901           JUNCTION        0.25          0.707        0.163
  YS02001904           JUNCTION        0.24          0.660        0.190
  YS02001907           JUNCTION        0.43          0.950        0.000
  YS02001910           JUNCTION        0.28          0.968        0.132
  YS02001915           JUNCTION        0.22          0.912        0.088
  YS02001918           JUNCTION        0.15          0.810        0.000
  YS02001920           JUNCTION        0.16          1.140        0.000
  YS02001923           JUNCTION        0.01          0.820        0.000
  YS02001926           JUNCTION        0.01          0.900        0.000
  YS02001929           JUNCTION        0.01          0.780        0.000
  YS02006553           JUNCTION        0.44          0.983        0.207
  YS02006556           JUNCTION        0.35          0.933        0.417
  YS02006558           JUNCTION        0.35          0.918        0.482
  YS02006561           JUNCTION        0.12          0.181        0.969
  YS02163301           JUNCTION        0.45          0.913        0.117
  YS02163601           JUNCTION        0.49          1.035        0.045
  YS02164001           JUNCTION        0.40          0.952        0.148
  YSB1154              JUNCTION        0.54          1.183        0.217
  YSB1171              JUNCTION        0.54          1.100        0.000
  YSB1174              JUNCTION        0.49          1.088        0.162
  YSB6556              JUNCTION        0.44          1.020        0.080
  
  
  *********************
  Node Flooding Summary
  *********************
  
  Flooding refers to all water that overflows a node, whether it ponds or not.
  --------------------------------------------------------------------------
                                                             Total   Maximum
                                 Maximum   Time of Max       Flood    Ponded
                        Hours       Rate    Occurrence      Volume     Depth
  Node                 Flooded       LPS   days hr:min    10^6 ltr    Meters
  --------------------------------------------------------------------------
  HS02004770              0.18    586.89      0  02:25       0.219     0.000
  HS02004777              0.01     68.22      0  02:20       0.001     0.000
  HS02004785              0.01    104.09      0  02:20       0.000     0.000
  HS02004788              0.01    237.53      0  02:20       0.001     0.000
  HS02004792              0.18   1007.68      0  02:25       0.352     0.000
  HS02004799              0.04     75.16      0  02:23       0.004     0.000
  HS02004807              0.01     16.73      0  02:23       0.000     0.000
  HS02004824              0.01     13.51      0  02:23       0.000     0.000
  HS02004830              0.01     17.03      0  02:23       0.000     0.000
  HS02004842              0.01     91.38      0  02:23       0.001     0.000
  HS02004852              0.01    157.87      0  02:23       0.000     0.000
  HS02004856              0.01    289.71      0  02:23       0.002     0.000
  HS02004862              0.01    107.88      0  02:23       0.001     0.000
  HS02004870              0.01    176.55      0  02:23       0.000     0.000
  HS02004881              0.01     60.39      0  02:23       0.000     0.000
  HS02004901              0.23    481.04      0  02:26       0.278     0.000
  WS02006109              0.21    214.50      0  02:25       0.091     0.000
  WS02006230              0.42    546.77      0  02:25       0.490     0.000
  WS02006231              0.01      0.33      0  02:20       0.000     0.000
  WS02006232              0.10      2.13      0  02:45       0.000     0.000
  WS02006234              0.48    128.56      0  02:34       0.192     0.000
  WS02006235              0.01     16.81      0  02:45       0.000     0.000
  WS02006242              0.55    137.67      0  02:22       0.242     0.000
  WS02006243              0.01     86.92      0  02:05       0.000     0.000
  WS02006247              0.01    139.61      0  02:05       0.000     0.000
  WS02006248              0.84    339.60      0  02:19       0.799     0.000
  WS02006249              1.38   1268.34      0  02:23       2.588     0.000
  WS02006251              0.01     70.74      0  02:23       0.000     0.000
  WS02006252              0.23    277.33      0  02:28       0.095     0.000
  WS02006253              0.01     56.25      0  02:23       0.000     0.000
  WS02006256              1.22    293.19      0  00:00       0.684     0.000
  YS02001580              0.01     90.32      0  02:20       0.000     0.000
  YS02001586              0.20    134.23      0  02:26       0.053     0.000
  YS02001590              0.01      8.66      0  02:20       0.000     0.000
  YS02001593              0.01      1.06      0  02:20       0.000     0.000
  YS02001596              0.01      0.83      0  02:20       0.000     0.000
  YS02001600              0.01      2.65      0  02:20       0.000     0.000
  YS02001601              0.31    717.33      0  02:25       0.464     0.000
  YS02001602              0.22     61.97      0  02:29       0.042     0.000
  YS02001605              0.01      4.18      0  02:20       0.000     0.000
  YS02001610              0.18    272.53      0  02:26       0.115     0.000
  YS02001613              0.01     10.55      0  02:20       0.000     0.000
  YS02001616              0.01     11.97      0  02:20       0.000     0.000
  YS02001625              0.15    637.25      0  02:26       0.171     0.000
  YS02001629              0.02     84.77      0  02:20       0.001     0.000
  YS02001644              0.01     15.44      0  02:25       0.000     0.000
  YS02001779              0.01    222.39      0  02:24       0.001     0.000
  YS02001890              0.03     61.96      0  02:23       0.004     0.000
  YS02001907              0.11    986.89      0  02:25       0.187     0.000
  YS02001918              0.01    223.10      0  02:24       0.003     0.000
  YS02001920              0.01     58.50      0  02:24       0.000     0.000
  YS02001923              0.01    127.97      0  02:24       0.000     0.000
  YS02001926              0.01    207.88      0  02:24       0.001     0.000
  YS02001929              0.01    160.80      0  02:24       0.000     0.000
  YSB1171                 0.09    354.99      0  02:25       0.074     0.000
  
  
  **********************
  Storage Volume Summary
  **********************
  
  --------------------------------------------------------------------------------------------------
                         Average     Avg  Evap Exfil       Maximum     Max    Time of Max    Maximum
                          Volume    Pcnt  Pcnt  Pcnt        Volume    Pcnt     Occurrence    Outflow
  Storage Unit           1000 m3    Full  Loss  Loss       1000 m3    Full    days hr:min        LPS
  --------------------------------------------------------------------------------------------------
  CC-storage               1.888      29     0     0         3.432      54       0  02:50    1783.53
  JK-storage               0.080      27     0     0         0.212      73       0  02:22    2300.00
  XR-storage               0.943      65     0     0         1.111      77       0  08:00     380.00
  
  
  ***********************
  Outfall Loading Summary
  ***********************
  
  -----------------------------------------------------------
                         Flow       Avg       Max       Total
                         Freq      Flow      Flow      Volume
  Outfall Node           Pcnt       LPS       LPS    10^6 ltr
  -----------------------------------------------------------
  CC-1                  29.01    683.00    683.00       2.932
  CC-2                  25.76    683.00    683.00       2.546
  JK-1                   7.56   1000.00   1000.00       1.296
  JK-2                   0.31   1000.00   1000.00       0.058
  WSC                   99.95    579.63   1478.32      12.699
  -----------------------------------------------------------
  System                32.52   3945.63   1478.32      19.531
  
  
  ********************
  Link Flow Summary
  ********************
  
  -----------------------------------------------------------------------------
                                 Maximum  Time of Max   Maximum    Max/    Max/
                                  |Flow|   Occurrence   |Veloc|    Full    Full
  Link                 Type          LPS  days hr:min     m/sec    Flow   Depth
  -----------------------------------------------------------------------------
  1                    CONDUIT   1478.32     0  02:29      3.68    0.51    0.51
  HS02004478WS02006287 CONDUIT   2249.38     0  02:25      2.58    0.63    1.00
  HS02004479HS02004480 CONDUIT    458.56     0  02:23      0.66    0.44    1.00
  HS02004480HS02004478 CONDUIT   2115.21     0  02:21      3.02    8.91    1.00
  HS02004770HS02004777 CONDUIT    752.66     0  02:20      1.08    1.38    1.00
  HS02004777HS02004785 CONDUIT    770.55     0  02:20      1.15    0.95    1.00
  HS02004785HS02004788 CONDUIT    651.99     0  02:20      1.37    4.92    1.00
  HS02004788HS02004792 CONDUIT    810.06     0  02:20      1.42    0.54    1.00
  HS02004792HS02004799 CONDUIT   1631.83     0  02:21      2.33    1.00    1.00
  HS02004799HS02004480 CONDUIT   1771.25     0  02:21      2.53    2.24    1.00
  HS02004802HS02004478 CONDUIT    744.33     0  02:25      1.06    0.66    1.00
  HS02004807HS02004802 CONDUIT    744.09     0  02:25      1.06    1.42    1.00
  HS02004817HS02004807 CONDUIT    470.67     0  02:25      0.67    0.28    1.00
  HS02004817HS02004824 CONDUIT    469.45     0  02:25      0.67    0.21    1.00
  HS02004824HS02004830 CONDUIT    660.50     0  02:20      0.97    0.86    1.00
  HS02004830HS02004837 CONDUIT    656.41     0  02:21      1.02    0.65    1.00
  HS02004837HS02004842 CONDUIT    839.73     0  02:21      1.20    0.50    1.00
  HS02004842HS02004848 CONDUIT    838.41     0  02:21      1.33    0.49    1.00
  HS02004848HS02004852 CONDUIT   1083.34     0  02:23      1.63    1.22    1.00
  HS02004852HS02004856 CONDUIT   1090.88     0  02:23      1.56    1.25    1.00
  HS02004856HS02004862 CONDUIT   1129.94     0  02:23      1.71    1.13    1.00
  HS02004862HS02004870 CONDUIT   1222.87     0  02:23      1.97    1.32    1.00
  HS02004870HS02004876 CONDUIT   1262.86     0  02:23      1.97    0.84    1.00
  HS02004876HS02004881 CONDUIT   1377.42     0  02:23      2.53   14.65    1.00
  HS02004881HS02006253 CONDUIT   1461.08     0  02:23      2.50    0.29    1.00
  HS02004901HS02004770 CONDUIT    264.25     0  02:31      0.38    0.99    1.00
  WS02001211WS02001212 CONDUIT    215.74     0  02:51      0.54    0.16    0.68
  WS02001212WS02001213 CONDUIT    222.17     0  02:50      1.04    0.34    0.55
  WS02001213WS02003059 CONDUIT    228.76     0  02:50      0.47    0.38    0.89
  WS02003059WS02003060 CONDUIT    236.94     0  02:50      0.66    0.15    0.80
  WS02003060WS02003069 CONDUIT   1475.67     0  02:27      2.07    0.58    0.60
  WS02003066WSF200     CONDUIT   1278.18     0  02:26      3.25    0.22    0.38
  WS02003067WS02003066 CONDUIT   1278.02     0  02:26      1.98    0.41    0.56
  WS02003069WS02003072 CONDUIT   1475.92     0  02:28      1.88    0.71    0.65
  WS02003072WS02003073 CONDUIT   1476.06     0  02:28      2.04    3.19    0.61
  WS02004138WS02004139 CONDUIT    190.74     0  00:29      2.16    0.04    0.41
  WS02004139WS02001211 CONDUIT    199.22     0  02:51      0.54    0.25    0.60
  WS02004401WS02004402 CONDUIT   1279.42     0  02:25      1.63    1.54    1.00
  WS02004402WS02004403 CONDUIT   1279.04     0  02:25      1.63    1.84    1.00
  WS02004403WS02004404 CONDUIT   1280.15     0  02:25      1.63    0.93    1.00
  WS02004404WS02004405 CONDUIT   1280.25     0  02:25      1.63   12.54    1.00
  WS02004405WS02004406 CONDUIT   1280.02     0  02:25      1.63    2.52    1.00
  WS02004406WS02004407 CONDUIT   1280.39     0  02:25      1.71    0.57    0.94
  WS02004407WS02004409 CONDUIT   1277.21     0  02:25      1.76    0.45    0.94
  WS02004409WS02004410 CONDUIT   1277.66     0  02:25      1.63    1.65    1.00
  WS02004410WS02004411 CONDUIT   1277.42     0  02:25      1.63    1.74    1.00
  WS02004411WS02004412 CONDUIT   1277.27     0  02:25      1.63    1.81    1.00
  WS02004412WS02004413 CONDUIT   1277.55     0  02:25      1.63    0.86    1.00
  WS02004413WS02003067 CONDUIT   1277.76     0  02:25      1.99    0.55    0.76
  WS02006109WS02006110 CONDUIT   1118.70     0  02:33      2.23    2.15    1.00
  WS02006110WS02006113 CONDUIT   1118.80     0  02:33      2.23    1.02    1.00
  WS02006111WS02006112 CONDUIT   1118.74     0  02:33      2.23    0.53    1.00
  WS02006112WS02006115 CONDUIT   1278.51     0  02:24      1.63    0.75    1.00
  WS02006113WS02006111 CONDUIT   1118.84     0  02:33      2.64    1.34    1.00
  WS02006115WS02006116 CONDUIT   1279.28     0  02:25      1.63    1.64    1.00
  WS02006116WS02004401 CONDUIT   1279.56     0  02:25      1.63    1.76    1.00
  WS02006228WS02006109 CONDUIT   1260.61     0  02:25      2.51    5.51    1.00
  WS02006229WS02006228 CONDUIT   1260.98     0  02:25      2.51    4.18    1.00
  WS02006230WS02006229 CONDUIT    989.56     0  02:25      2.57   22.02    1.00
  WS02006231WS02006230 CONDUIT    497.17     0  03:20      1.29    7.54    1.00
  WS02006232WS02006231 CONDUIT    497.65     0  03:20      1.29    1.04    1.00
  WS02006234WS02006232 CONDUIT    498.36     0  03:20      1.41    1.01    1.00
  WS02006235WS02006234 CONDUIT    499.19     0  03:20      1.30    5.27    1.00
  WS02006238WS02006235 CONDUIT    425.49     0  03:24      1.48    0.95    1.00
  WS02006239WS02006238 CONDUIT    417.52     0  03:24      1.11    1.34    1.00
  WS02006240WS02006239 CONDUIT    415.77     0  03:24      1.26    1.31    1.00
  WS02006242WS02006240 CONDUIT    415.27     0  02:23      1.14    1.65    1.00
  WS02006243WS02006242 CONDUIT    416.14     0  03:24      1.34    0.89    1.00
  WS02006245WS02006243 CONDUIT    417.01     0  03:24      1.39    1.23    1.00
  WS02006247WS02006245 CONDUIT    417.95     0  03:24      1.37    3.31    1.00
  WS02006248WS02006247 CONDUIT    418.86     0  03:24      1.38    0.91    1.00
  WS02006249WS02006248 CONDUIT    419.43     0  03:24      1.40    2.30    1.00
  WS02006251WS02006249 CONDUIT   1329.51     0  02:23      3.45    3.83    1.00
  WS02006252WS02006251 CONDUIT    410.88     0  02:44     28.18    1.51    1.00
  WS02006253WS02006251 CONDUIT   1490.65     0  02:23      3.87    4.47    1.00
  WS02006256WS02006235 CONDUIT    289.00     0  06:10      4.23    3.06    1.00
  WS02006280WS02006229 CONDUIT   2252.36     0  02:25      4.14    0.48    1.00
  WS02006284WS02006280 CONDUIT   2250.51     0  02:25      3.01    0.94    1.00
  WS02006287WS02006284 CONDUIT   2249.56     0  02:25      2.86    1.04    1.00
  WSF200WS02003060     CONDUIT   1278.27     0  02:26      2.29    0.28    0.50
  YS02001580YS02001583 CONDUIT    113.70     0  02:20      0.69    0.44    1.00
  YS02001583YS02001586 CONDUIT    166.99     0  02:20      0.71    0.25    1.00
  YS02001586YS02001590 CONDUIT    318.03     0  02:30      1.27    0.56    1.00
  YS02001590YS02001593 CONDUIT    317.99     0  02:29      1.12    2.00    1.00
  YS02001593YS02001596 CONDUIT    317.95     0  02:29      1.74    0.50    1.00
  YS02001596YS02001600 CONDUIT    318.01     0  02:30      1.23    0.62    1.00
  YS02001600YS02001601 CONDUIT    317.90     0  02:27      1.12    0.55    1.00
  YS02001601YS02001602 CONDUIT    517.24     0  02:20      1.83    1.87    1.00
  YS02001602YS02001605 CONDUIT    516.59     0  02:20      1.83   10.93    1.00
  YS02001605YS02001607 CONDUIT    516.26     0  02:20      1.83    2.83    1.00
  YS02001607YS02001610 CONDUIT    514.39     0  02:20      0.65    0.49    1.00
  YS02001610YS02001613 CONDUIT    515.82     0  02:19      0.66    0.59    1.00
  YS02001613YS02001616 CONDUIT    515.85     0  02:19      0.66    0.44    1.00
  YS02001616YS02001619 CONDUIT    520.21     0  02:20      0.69    0.90    1.00
  YS02001619YS02001622 CONDUIT    954.96     0  02:20      1.22    1.41    1.00
  YS02001622YS02001625 CONDUIT    964.32     0  02:20      1.23    0.51    1.00
  YS02001625YS02001629 CONDUIT    966.41     0  02:20      1.23    0.46    1.00
  YS02001629YS02163301 CONDUIT    938.30     0  02:22      1.19    1.16    1.00
  YS02001633YS02163601 CONDUIT   1422.07     0  02:23      1.81    1.49    1.00
  YS02001641YS02001644 CONDUIT   1417.01     0  02:22      1.80    4.58    1.00
  YS02001644YS02001647 CONDUIT   1845.71     0  02:23      2.36    1.08    1.00
  YS02001647YS02001649 CONDUIT   1867.05     0  02:23      2.40    0.99    1.00
  YS02001649YS02001757 CONDUIT   2153.76     0  02:23      2.75    1.31    1.00
  YS02001652YS02001649 CONDUIT    612.19     0  02:27      0.78    0.30    1.00
  YS02001655YS02001652 CONDUIT    611.70     0  02:27      1.29    0.30    1.00
  YS02001658YS02001655 CONDUIT    611.14     0  02:27      1.94    0.26    1.00
  YS02001661YS02001658 CONDUIT    735.32     0  02:25      2.38    0.29    0.84
  YS02001664YS02001661 CONDUIT    543.77     0  02:25      2.37    0.17    0.52
  YS02001745YS02001748 CONDUIT    518.69     0  02:26      2.23    0.20    0.63
  YS02001748YS02001751 CONDUIT    491.72     0  02:27      1.74    0.25    0.99
  YS02001751YS02001754 CONDUIT    390.82     0  02:27      1.44    0.19    1.00
  YS02001754YS02001757 CONDUIT    391.75     0  02:27      0.50    0.16    1.00
  YS02001757CaochengTiaoxuchi CONDUIT   3269.74     0  02:26      4.27    1.42    1.00
  YS02001759YS02001757 CONDUIT   1204.73     0  02:24      1.53    0.86    1.00
  YS02001762YS02001759 CONDUIT    726.69     0  02:24      0.93    0.84    1.00
  YS02001765YS02001762 CONDUIT    716.85     0  02:24      0.91    0.67    1.00
  YS02001767YS02001765 CONDUIT    706.16     0  02:24      0.90    0.89    1.00
  YS02001770YS02001767 CONDUIT    696.92     0  02:24      0.89    2.76    1.00
  YS02001774YS02001770 CONDUIT    301.02     0  02:24      0.38    0.19    1.00
  YS02001779YS02001774 CONDUIT    305.52     0  02:24      0.39    0.15    1.00
  YS02001783YS02001784 CONDUIT   1153.65     0  02:24      2.30    1.59    1.00
  YS02001784YS02001785 CONDUIT   1153.97     0  02:24      2.30    2.69    1.00
  YS02001786YS02001788 CONDUIT   1154.36     0  02:24      2.47    2.22    0.89
  YS02001788YS02001790 CONDUIT   1173.26     0  02:24      2.72    0.86    0.83
  YS02001790YS02001791 CONDUIT   1279.41     0  02:26      3.43    1.39    0.70
  YS02001791YS02001793 CONDUIT   1228.94     0  02:27      6.61    0.53    0.43
  YS02001793JiankangQianchi CONDUIT   1223.29     0  02:31      2.45    0.10    0.64
  YS02001882YS02001884 CONDUIT     58.25     0  02:22      0.08    0.07    1.00
  YS02001884YS02001887 CONDUIT     81.10     0  02:22      0.10    0.11    1.00
  YS02001887YS02001890 CONDUIT    516.04     0  02:25      0.66    0.88    1.00
  YS02001890YS02001895 CONDUIT    493.19     0  02:25      0.63    0.23    1.00
  YS02001895YS02001898 CONDUIT    493.87     0  02:25      0.63    0.86    1.00
  YS02001898YS02001901 CONDUIT    494.32     0  02:25      0.63    0.32    1.00
  YS02001901YS02001904 CONDUIT    495.77     0  02:23      0.63    0.77    1.00
  YS02001904YS02001907 CONDUIT    500.39     0  02:23      0.64    0.18    1.00
  YS02001907YS02006553 CONDUIT    799.80     0  02:31      0.89    0.94    1.00
  YS02001910YS02001907 CONDUIT    995.29     0  02:25      1.27    0.56    1.00
  YS02001915YS02001910 CONDUIT    994.88     0  02:25      1.27    0.49    1.00
  YS02001918YS02001915 CONDUIT    458.49     0  02:25      0.58    0.25    1.00
  YS02001920YS02001918 CONDUIT    456.82     0  02:25      0.64    0.44    1.00
  YS02001923YS02001920 CONDUIT    453.45     0  02:25      0.73    0.20    1.00
  YS02001926YS02001923 CONDUIT    409.12     0  02:25      0.98    0.58    1.00
  YS02001929YS02001926 CONDUIT    406.37     0  02:25      1.16    0.19    1.00
  YS02006553YS02006556 CONDUIT    800.15     0  02:31      1.02    0.68    1.00
  YS02006556YS02006558 CONDUIT    801.65     0  02:31      1.02    0.63    1.00
  YS02006558YS02006561 CONDUIT   1162.11     0  02:23      4.11    2.57    1.00
  YS02006561YS02001783 CONDUIT   1153.28     0  02:24      2.29    0.60    1.00
  YS02163301YS02001633 CONDUIT    938.74     0  02:22      1.20    0.88    1.00
  YS02163601YS02164001 CONDUIT   1420.05     0  02:23      1.81    1.26    1.00
  YS02164001YS02001641 CONDUIT   1416.32     0  02:22      1.80    1.93    1.00
  YSB1154YSB6556       CONDUIT    283.54     0  02:25      0.74    0.51    1.00
  YSB1171HS02004479    CONDUIT    459.80     0  02:23      0.91    0.31    1.00
  YSB1174YSB1171       CONDUIT    244.19     0  02:25      0.63    0.37    1.00
  YSB6556YSB1171       CONDUIT    284.87     0  02:25      0.74    0.29    1.00
  CC-R1                PUMP       683.00     0  00:00              1.00
  CC-R2                PUMP       683.00     0  00:00              1.00
  CC-S1                PUMP       200.00     0  00:00              1.00
  CC-S2                PUMP       200.00     0  00:00              1.00
  JK-R1                PUMP      1000.00     0  00:00              1.00
  JK-R2                PUMP      1000.00     0  00:00              1.00
  JK-S                 PUMP       300.00     0  00:00              1.00
  XR-1                 PUMP        95.00     0  00:00              1.00
  XR-2                 PUMP        95.00     0  00:00              1.00
  XR-3                 PUMP        95.00     0  00:00              1.00
  XR-4                 PUMP        95.00     0  00:00              1.00
  
  
  ***************************
  Flow Classification Summary
  ***************************
  
  -------------------------------------------------------------------------------------
                      Adjusted    ---------- Fraction of Time in Flow Class ---------- 
                       /Actual         Up    Down  Sub   Sup   Up    Down  Norm  Inlet 
  Conduit               Length    Dry  Dry   Dry   Crit  Crit  Crit  Crit  Ltd   Ctrl  
  -------------------------------------------------------------------------------------
  1                       1.00   0.00  0.00  0.00  0.00  1.00  0.00  0.00  0.34  0.00
  HS02004478WS02006287    1.00   0.12  0.00  0.00  0.60  0.28  0.00  0.00  0.62  0.00
  HS02004479HS02004480    1.00   0.05  0.00  0.00  0.95  0.00  0.00  0.00  0.12  0.00
  HS02004480HS02004478    1.00   0.10  0.00  0.00  0.46  0.00  0.00  0.44  0.00  0.00
  HS02004770HS02004777    1.00   0.00  0.10  0.00  0.90  0.00  0.00  0.00  0.03  0.00
  HS02004777HS02004785    1.00   0.00  0.00  0.00  1.00  0.00  0.00  0.00  0.14  0.00
  HS02004785HS02004788    1.00   0.00  0.00  0.00  1.00  0.00  0.00  0.00  0.00  0.00
  HS02004788HS02004792    1.00   0.00  0.00  0.00  0.99  0.01  0.00  0.00  0.93  0.00
  HS02004792HS02004799    1.00   0.00  0.00  0.00  0.98  0.02  0.00  0.00  0.90  0.00
  HS02004799HS02004480    1.00   0.00  0.05  0.00  0.88  0.00  0.07  0.00  0.00  0.00
  HS02004802HS02004478    1.00   0.10  0.00  0.00  0.89  0.00  0.00  0.00  0.03  0.00
  HS02004807HS02004802    1.00   0.10  0.00  0.00  0.89  0.00  0.00  0.01  0.00  0.00
  HS02004817HS02004807    1.00   0.00  0.10  0.00  0.90  0.00  0.00  0.00  0.01  0.00
  HS02004817HS02004824    1.00   0.00  0.00  0.00  1.00  0.00  0.00  0.00  0.87  0.00
  HS02004824HS02004830    1.00   0.00  0.00  0.00  1.00  0.00  0.00  0.00  0.01  0.00
  HS02004830HS02004837    1.00   0.00  0.00  0.00  1.00  0.00  0.00  0.00  0.92  0.00
  HS02004837HS02004842    1.00   0.00  0.00  0.00  1.00  0.00  0.00  0.00  0.11  0.00
  HS02004842HS02004848    1.00   0.00  0.10  0.00  0.90  0.00  0.00  0.00  0.60  0.00
  HS02004848HS02004852    1.00   0.10  0.00  0.00  0.90  0.00  0.00  0.00  0.69  0.00
  HS02004852HS02004856    1.00   0.10  0.01  0.00  0.89  0.00  0.00  0.00  0.73  0.00
  HS02004856HS02004862    1.00   0.00  0.13  0.00  0.87  0.00  0.00  0.00  0.76  0.00
  HS02004862HS02004870    1.00   0.00  0.00  0.00  1.00  0.00  0.00  0.00  0.05  0.00
  HS02004870HS02004876    1.00   0.00  0.00  0.00  0.99  0.01  0.00  0.00  0.90  0.00
  HS02004876HS02004881    1.00   0.04  0.00  0.00  0.75  0.21  0.00  0.00  0.00  0.00
  HS02004881HS02006253    1.00   0.03  0.04  0.00  0.40  0.04  0.00  0.50  0.19  0.00
  HS02004901HS02004770    1.00   0.10  0.00  0.00  0.90  0.00  0.00  0.00  0.00  0.00
  WS02001211WS02001212    1.00   0.00  0.04  0.00  0.96  0.00  0.00  0.00  0.00  0.00
  WS02001212WS02001213    1.00   0.04  0.00  0.00  0.47  0.00  0.49  0.00  0.00  0.00
  WS02001213WS02003059    1.00   0.00  0.00  0.00  0.99  0.00  0.00  0.00  0.00  0.00
  WS02003059WS02003060    1.00   0.00  0.00  0.00  1.00  0.00  0.00  0.00  0.03  0.00
  WS02003060WS02003069    1.00   0.00  0.00  0.00  0.99  0.01  0.00  0.00  0.48  0.00
  WS02003066WSF200        1.00   0.08  0.00  0.00  0.00  0.92  0.00  0.00  0.71  0.00
  WS02003067WS02003066    1.00   0.07  0.00  0.00  0.92  0.00  0.00  0.00  0.00  0.00
  WS02003069WS02003072    1.00   0.00  0.00  0.00  1.00  0.00  0.00  0.00  0.69  0.00
  WS02003072WS02003073    1.00   0.00  0.00  0.00  0.00  0.00  0.00  1.00  0.00  0.00
  WS02004138WS02004139    1.00   0.00  0.01  0.00  0.96  0.01  0.00  0.02  0.98  0.00
  WS02004139WS02001211    1.00   0.00  0.00  0.00  0.99  0.00  0.00  0.00  0.00  0.00
  WS02004401WS02004402    1.00   0.04  0.00  0.00  0.96  0.00  0.00  0.00  0.00  0.00
  WS02004402WS02004403    1.00   0.04  0.00  0.00  0.96  0.00  0.00  0.00  0.00  0.00
  WS02004403WS02004404    1.00   0.00  0.05  0.00  0.95  0.00  0.00  0.00  0.00  0.00
  WS02004404WS02004405    1.00   0.00  0.00  0.00  1.00  0.00  0.00  0.00  0.01  0.00
  WS02004405WS02004406    1.00   0.00  0.00  0.00  1.00  0.00  0.00  0.00  0.00  0.00
  WS02004406WS02004407    1.00   0.00  0.06  0.00  0.94  0.00  0.00  0.00  0.00  0.00
  WS02004407WS02004409    1.00   0.06  0.00  0.00  0.94  0.00  0.00  0.00  0.87  0.00
  WS02004409WS02004410    1.00   0.06  0.00  0.00  0.94  0.00  0.00  0.00  0.00  0.00
  WS02004410WS02004411    1.00   0.06  0.00  0.00  0.94  0.00  0.00  0.00  0.00  0.00
  WS02004411WS02004412    1.00   0.06  0.00  0.00  0.94  0.00  0.00  0.00  0.00  0.00
  WS02004412WS02004413    1.00   0.06  0.00  0.00  0.94  0.00  0.00  0.00  0.01  0.00
  WS02004413WS02003067    1.00   0.06  0.01  0.00  0.00  0.00  0.93  0.00  0.00  0.00
  WS02006109WS02006110    1.00   0.00  0.01  0.00  0.97  0.00  0.03  0.00  0.00  0.00
  WS02006110WS02006113    1.00   0.01  0.03  0.00  0.96  0.00  0.00  0.00  0.00  0.00
  WS02006111WS02006112    1.00   0.04  0.00  0.00  0.96  0.00  0.00  0.00  0.81  0.00
  WS02006112WS02006115    1.00   0.04  0.00  0.00  0.95  0.00  0.00  0.00  0.00  0.00
  WS02006113WS02006111    1.00   0.04  0.00  0.00  0.22  0.75  0.00  0.00  0.08  0.00
  WS02006115WS02006116    1.00   0.04  0.00  0.00  0.95  0.00  0.00  0.01  0.00  0.00
  WS02006116WS02004401    1.00   0.04  0.00  0.00  0.96  0.00  0.00  0.00  0.00  0.00
  WS02006228WS02006109    1.00   0.00  0.00  0.00  1.00  0.00  0.00  0.00  0.00  0.00
  WS02006229WS02006228    1.00   0.00  0.00  0.00  0.99  0.00  0.00  0.01  0.00  0.00
  WS02006230WS02006229    1.00   0.00  0.00  0.00  0.97  0.00  0.00  0.03  0.03  0.00
  WS02006231WS02006230    1.00   0.00  0.00  0.00  0.49  0.00  0.51  0.00  0.00  0.00
  WS02006232WS02006231    1.00   0.00  0.00  0.00  0.99  0.00  0.01  0.00  0.00  0.00
  WS02006234WS02006232    1.00   0.00  0.00  0.00  1.00  0.00  0.00  0.00  0.12  0.00
  WS02006235WS02006234    1.00   0.00  0.00  0.00  0.84  0.00  0.16  0.00  0.00  0.00
  WS02006238WS02006235    1.00   0.00  0.00  0.00  1.00  0.00  0.00  0.00  0.00  0.00
[...]
  WS02006256WS02006235    1.00   0.00  0.00  0.00  0.98  0.02  0.00  0.00  0.00  0.00
  WS02006280WS02006229    1.00   0.11  0.00  0.00  0.17  0.04  0.00  0.69  0.01  0.00
  WS02006284WS02006280    1.00   0.11  0.00  0.00  0.11  0.02  0.00  0.77  0.00  0.00
  WS02006287WS02006284    1.00   0.09  0.03  0.00  0.43  0.45  0.00  0.00  0.68  0.00
  WSF200WS02003060        1.00   0.00  0.08  0.00  0.50  0.42  0.00  0.00  0.65  0.00
  YS02001580YS02001583    1.00   0.30  0.47  0.00  0.23  0.00  0.00  0.00  0.66  0.00
  YS02001583YS02001586    1.00   0.33  0.32  0.00  0.34  0.00  0.00  0.00  0.66  0.00
  YS02001586YS02001590    1.00   0.10  0.00  0.00  0.58  0.03  0.00  0.29  0.36  0.00
  YS02001590YS02001593    1.00   0.10  0.00  0.00  0.11  0.00  0.79  0.00  0.00  0.00
  YS02001593YS02001596    1.00   0.11  0.00  0.00  0.13  0.01  0.00  0.75  0.01  0.00
  YS02001596YS02001600    1.00   0.11  0.00  0.00  0.23  0.03  0.00  0.63  0.05  0.00
  YS02001600YS02001601    1.00   0.10  0.00  0.00  0.89  0.00  0.00  0.00  0.65  0.00
  YS02001601YS02001602    1.00   0.10  0.01  0.00  0.89  0.00  0.00  0.00  0.00  0.00
  YS02001602YS02001605    1.00   0.11  0.00  0.00  0.89  0.00  0.00  0.00  0.00  0.00
  YS02001605YS02001607    1.00   0.11  0.00  0.00  0.89  0.00  0.00  0.00  0.00  0.00
  YS02001607YS02001610    1.00   0.10  0.00  0.00  0.89  0.00  0.00  0.00  0.02  0.00
  YS02001610YS02001613    1.00   0.10  0.00  0.00  0.90  0.00  0.00  0.00  0.01  0.00
  YS02001613YS02001616    1.00   0.10  0.00  0.00  0.90  0.00  0.00  0.00  0.01  0.00
  YS02001616YS02001619    1.00   0.10  0.00  0.00  0.90  0.00  0.00  0.00  0.00  0.00
  YS02001619YS02001622    1.00   0.10  0.00  0.00  0.90  0.00  0.00  0.00  0.35  0.00
  YS02001622YS02001625    1.00   0.10  0.00  0.00  0.90  0.00  0.00  0.00  0.07  0.00
  YS02001625YS02001629    1.00   0.10  0.04  0.00  0.16  0.00  0.70  0.00  0.00  0.00
  YS02001629YS02163301    1.00   0.12  0.01  0.00  0.87  0.00  0.00  0.00  0.00  0.00
  YS02001633YS02163601    1.00   0.00  0.01  0.00  0.99  0.00  0.00  0.00  0.16  0.00
  YS02001641YS02001644    1.00   0.00  0.00  0.00  1.00  0.00  0.00  0.00  0.00  0.00
  YS02001644YS02001647    1.00   0.00  0.14  0.00  0.86  0.00  0.00  0.00  0.00  0.00
  YS02001647YS02001649    1.00   0.00  0.14  0.00  0.44  0.43  0.00  0.00  0.59  0.00
  YS02001649YS02001757    1.00   0.00  0.00  0.00  0.60  0.40  0.00  0.00  0.52  0.00
  YS02001652YS02001649    1.00   0.00  0.00  0.00  0.97  0.03  0.00  0.00  0.80  0.00
  YS02001655YS02001652    1.00   0.00  0.00  0.00  0.20  0.02  0.00  0.78  0.07  0.00
  YS02001658YS02001655    1.00   0.00  0.11  0.00  0.50  0.39  0.00  0.00  0.76  0.00
  YS02001661YS02001658    1.00   0.11  0.00  0.00  0.33  0.56  0.00  0.00  0.75  0.00
  YS02001664YS02001661    1.00   0.10  0.00  0.00  0.73  0.17  0.00  0.00  0.86  0.00
  YS02001745YS02001748    1.00   0.00  0.00  0.00  0.03  0.01  0.00  0.96  0.02  0.00
  YS02001748YS02001751    1.00   0.00  0.00  0.00  0.69  0.31  0.00  0.00  0.81  0.00
  YS02001751YS02001754    1.00   0.00  0.00  0.00  0.12  0.01  0.00  0.87  0.03  0.00
  YS02001754YS02001757    1.00   0.00  0.00  0.00  1.00  0.00  0.00  0.00  0.87  0.00
  YS02001757CaochengTiaoxuchi    1.00   0.00  0.00  0.00  0.92  0.08  0.00  0.00  0.83  0.00
  YS02001759YS02001757    1.00   0.00  0.00  0.00  1.00  0.00  0.00  0.00  0.66  0.00
  YS02001762YS02001759    1.00   0.00  0.00  0.00  1.00  0.00  0.00  0.00  0.06  0.00
  YS02001765YS02001762    1.00   0.00  0.00  0.00  1.00  0.00  0.00  0.00  0.76  0.00
  YS02001767YS02001765    1.00   0.00  0.00  0.00  1.00  0.00  0.00  0.00  0.00  0.00
  YS02001770YS02001767    1.00   0.00  0.00  0.00  1.00  0.00  0.00  0.00  0.00  0.00
  YS02001774YS02001770    1.00   0.00  0.10  0.00  0.72  0.00  0.17  0.00  0.04  0.00
  YS02001779YS02001774    1.00   0.00  0.00  0.00  1.00  0.00  0.00  0.00  0.84  0.00
  YS02001783YS02001784    1.00   0.00  0.15  0.00  0.85  0.00  0.00  0.00  0.58  0.00
  YS02001784YS02001785    1.00   0.00  0.00  0.00  1.00  0.00  0.00  0.00  0.19  0.00
  YS02001786YS02001788    1.00   0.00  0.00  0.00  0.68  0.32  0.00  0.00  0.00  0.00
  YS02001788YS02001790    1.00   0.00  0.00  0.00  0.17  0.83  0.00  0.00  0.86  0.00
  YS02001790YS02001791    1.00   0.00  0.00  0.00  0.02  0.98  0.00  0.00  0.14  0.00
  YS02001791YS02001793    1.00   0.00  0.00  0.00  0.00  1.00  0.00  0.00  0.00  0.00
  YS02001793JiankangQianchi    1.00   0.00  0.00  0.00  0.99  0.01  0.00  0.00  0.98  0.00
  YS02001882YS02001884    1.00   0.12  0.01  0.00  0.88  0.00  0.00  0.00  0.00  0.00
  YS02001884YS02001887    1.00   0.07  0.03  0.00  0.91  0.00  0.00  0.00  0.00  0.00
  YS02001887YS02001890    1.00   0.00  0.00  0.00  0.95  0.00  0.05  0.00  0.00  0.00
  YS02001890YS02001895    1.00   0.00  0.13  0.00  0.87  0.00  0.00  0.00  0.00  0.00
  YS02001895YS02001898    1.00   0.13  0.00  0.00  0.85  0.00  0.02  0.00  0.00  0.00
  YS02001898YS02001901    1.00   0.13  0.01  0.00  0.87  0.00  0.00  0.00  0.01  0.00
  YS02001901YS02001904    1.00   0.13  0.00  0.00  0.87  0.00  0.00  0.00  0.00  0.00
  YS02001904YS02001907    1.00   0.00  0.12  0.00  0.87  0.00  0.00  0.00  0.00  0.00
  YS02001907YS02006553    1.00   0.00  0.04  0.00  0.96  0.00  0.00  0.00  0.00  0.00
  YS02001910YS02001907    1.00   0.00  0.00  0.00  0.95  0.00  0.00  0.04  0.12  0.00
  YS02001915YS02001910    1.00   0.00  0.00  0.00  0.96  0.04  0.00  0.00  0.18  0.00
  YS02001918YS02001915    1.00   0.00  0.00  0.00  0.96  0.04  0.00  0.00  0.80  0.00
  YS02001920YS02001918    1.00   0.00  0.00  0.00  1.00  0.00  0.00  0.00  0.00  0.00
  YS02001923YS02001920    1.00   0.00  0.00  0.00  1.00  0.00  0.00  0.00  0.96  0.00
  YS02001926YS02001923    1.00   0.00  0.07  0.00  0.04  0.00  0.88  0.00  0.00  0.00
  YS02001929YS02001926    1.00   0.00  0.10  0.00  0.90  0.00  0.00  0.00  0.85  0.00
  YS02006553YS02006556    1.00   0.02  0.00  0.00  0.98  0.00  0.00  0.00  0.03  0.00
  YS02006556YS02006558    1.00   0.00  0.00  0.00  1.00  0.00  0.00  0.00  0.00  0.00
  YS02006558YS02006561    1.00   0.15  0.00  0.00  0.04  0.82  0.00  0.00  0.18  0.00
  YS02006561YS02001783    1.00   0.15  0.00  0.00  0.08  0.78  0.00  0.00  0.71  0.00
  YS02163301YS02001633    1.00   0.00  0.12  0.00  0.88  0.00  0.00  0.00  0.00  0.00
  YS02163601YS02164001    1.00   0.00  0.08  0.00  0.92  0.00  0.00  0.00  0.00  0.00
  YS02164001YS02001641    1.00   0.01  0.07  0.00  0.92  0.00  0.00  0.00  0.06  0.00
  YSB1154YSB6556          1.00   0.10  0.00  0.00  0.90  0.00  0.00  0.00  0.02  0.00
  YSB1171HS02004479       1.00   0.06  0.00  0.00  0.94  0.00  0.00  0.01  0.11  0.00
  YSB1174YSB1171          1.00   0.06  0.02  0.00  0.92  0.00  0.00  0.00  0.00  0.00
  YSB6556YSB1171          1.00   0.06  0.04  0.00  0.90  0.00  0.00  0.00  0.00  0.00
  
  
  *************************
  Conduit Surcharge Summary
  *************************
  
  ----------------------------------------------------------------------------
                                                           Hours        Hours 
                         --------- Hours Full --------   Above Full   Capacity
  Conduit                Both Ends  Upstream  Dnstream   Normal Flow   Limited
  ----------------------------------------------------------------------------
  HS02004478WS02006287        0.25      0.25      0.39      0.01         0.01
  HS02004479HS02004480        0.39      0.39      0.41      0.01         0.01
  HS02004480HS02004478        0.34      0.39      0.34      1.30         0.34
  HS02004770HS02004777        0.31      0.31      0.32      0.08         0.05
  HS02004777HS02004785        0.28      0.28      0.32      0.01         0.01
  HS02004785HS02004788        0.27      0.28      0.27      0.98         0.26
  HS02004788HS02004792        0.27      0.27      0.36      0.01         0.01
  HS02004792HS02004799        0.36      0.36      0.46      0.01         0.01
  HS02004799HS02004480        0.39      0.39      0.46      0.53         0.01
  HS02004802HS02004478        0.35      0.35      0.40      0.01         0.01
  HS02004807HS02004802        0.38      0.38      0.39      0.08         0.08
  HS02004817HS02004807        0.38      0.38      0.80      0.01         0.01
  HS02004817HS02004824        0.27      0.27      0.80      0.01         0.01
  HS02004824HS02004830        0.25      0.25      0.27      0.01         0.01
  HS02004830HS02004837        0.22      0.22      0.25      0.01         0.01
  HS02004837HS02004842        0.22      0.22      0.32      0.01         0.01
  HS02004842HS02004848        0.18      0.18      0.32      0.01         0.01
  HS02004848HS02004852        0.18      0.18      0.21      0.03         0.01
  HS02004852HS02004856        0.20      0.21      0.22      0.02         0.01
  HS02004856HS02004862        0.19      0.19      0.22      0.02         0.01
  HS02004862HS02004870        0.22      0.22      0.23      0.03         0.02
  HS02004870HS02004876        0.23      0.23      0.29      0.01         0.01
  HS02004876HS02004881        0.27      0.29      0.27      1.00         0.27
  HS02004881HS02006253        0.27      0.27      1.36      0.01         0.01
  HS02004901HS02004770        0.31      0.31      0.32      0.01         0.01
  WS02003072WS02003073        0.01      0.01      0.01      2.17         0.01
  WS02004401WS02004402        1.17      1.17      1.20      0.98         0.97
  WS02004402WS02004403        1.20      1.20      1.20      1.16         1.14
  WS02004403WS02004404        1.20      1.20      1.40      0.01         0.01
  WS02004404WS02004405        1.38      1.40      1.38      2.77         1.38
  WS02004405WS02004406        1.33      1.38      1.33      1.59         1.33
  WS02004406WS02004407        0.01      0.01      1.33      0.01         0.01
  WS02004407WS02004409        0.01      0.01      0.67      0.01         0.01
  WS02004409WS02004410        0.61      0.67      0.61      1.01         0.61
  WS02004410WS02004411        0.56      0.61      0.56      1.09         0.56
  WS02004411WS02004412        0.48      0.56      0.48      1.15         0.48
  WS02004412WS02004413        0.48      0.48      0.89      0.01         0.01
  WS02004413WS02003067        0.01      0.01      0.89      0.01         0.01
  WS02006109WS02006110        1.56      1.56      1.82      1.57         0.01
  WS02006110WS02006113        0.88      0.88      1.79      0.19         0.01
  WS02006111WS02006112        0.86      0.86      2.06      0.01         0.01
  WS02006112WS02006115        1.02      1.02      1.62      0.01         0.01
  WS02006113WS02006111        0.87      0.88      0.88      0.96         0.87
  WS02006115WS02006116        1.04      1.04      1.05      1.01         1.00
  WS02006116WS02004401        1.15      1.15      1.17      1.10         1.10
  WS02006228WS02006109        1.76      1.82      1.76      2.18         1.76
  WS02006229WS02006228        1.75      1.76      1.75      2.01         1.75
  WS02006230WS02006229        1.88      1.94      1.88      3.32         1.10
  WS02006231WS02006230        1.37      1.38      1.50      2.52         0.69
  WS02006232WS02006231        1.48      1.48      1.63      0.04         0.09
  WS02006234WS02006232        1.52      1.52      1.63      0.01         0.03
  WS02006235WS02006234        1.48      1.49      1.52      2.27         0.65
  WS02006238WS02006235        1.53      1.53      1.57      0.01         0.23
  WS02006239WS02006238        1.53      1.54      1.55      0.94         0.37
  WS02006240WS02006239        1.46      1.48      1.49      0.93         0.34
  WS02006242WS02006240        1.46      1.46      1.53      1.23         0.56
  WS02006243WS02006242        1.44      1.44      1.48      0.01         0.02
  WS02006245WS02006243        1.43      1.43      1.43      0.37         0.30
  WS02006247WS02006245        1.43      1.43      1.43      1.70         0.57
  WS02006248WS02006247        1.42      1.42      1.43      0.01         0.03
  WS02006249WS02006248        1.41      1.42      1.42      0.94         0.01
  WS02006251WS02006249        1.41      1.41      1.42      1.44         1.32
  WS02006252WS02006251        1.61      1.61      1.66      1.25         0.01
  WS02006253WS02006251        1.41      1.41      1.41      0.48         0.02
  WS02006256WS02006235        2.40      2.48      5.87      0.81         0.01
  WS02006280WS02006229        0.49      0.49      0.59      0.01         0.01
  WS02006284WS02006280        0.41      0.41      0.48      0.01         0.01
  WS02006287WS02006284        0.34      0.34      0.42      0.10         0.10
  YS02001580YS02001583        0.27      0.27      0.31      0.01         0.01
  YS02001583YS02001586        0.28      0.28      0.37      0.01         0.01
  YS02001586YS02001590        0.37      0.37      0.42      0.01         0.01
  YS02001590YS02001593        0.42      0.42      0.44      0.44         0.01
  YS02001593YS02001596        0.43      0.43      0.51      0.01         0.01
  YS02001596YS02001600        0.54      0.54      0.61      0.01         0.01
  YS02001600YS02001601        0.67      0.67      0.92      0.01         0.01
  YS02001601YS02001602        0.81      0.81      0.96      0.63         0.01
  YS02001602YS02001605        0.77      0.77      0.81      1.82         0.01
  YS02001605YS02001607        0.73      0.77      0.73      0.88         0.73
  YS02001607YS02001610        0.37      0.37      0.39      0.01         0.01
  YS02001610YS02001613        0.37      0.37      0.39      0.01         0.01
  YS02001613YS02001616        0.34      0.34      0.37      0.01         0.01
  YS02001616YS02001619        0.33      0.33      0.34      0.01         0.01
  YS02001619YS02001622        0.32      0.33      0.32      0.45         0.31
  YS02001622YS02001625        0.32      0.32      0.46      0.01         0.01
  YS02001625YS02001629        0.27      0.27      0.46      0.01         0.01
  YS02001629YS02163301        0.45      0.45      0.45      0.22         0.20
  YS02001633YS02163601        0.47      0.47      0.49      0.32         0.32
  YS02001641YS02001644        0.35      0.39      0.35      1.01         0.35
  YS02001644YS02001647        0.20      0.20      0.35      0.05         0.01
  YS02001647YS02001649        0.20      0.20      0.24      0.01         0.01
  YS02001649YS02001757        0.23      0.24      0.24      0.24         0.18
  YS02001652YS02001649        0.16      0.16      0.24      0.01         0.01
  YS02001655YS02001652        0.07      0.07      0.15      0.01         0.01
  YS02001658YS02001655        0.01      0.01      0.07      0.01         0.01
  YS02001661YS02001658        0.01      0.01      0.01      0.01         0.01
  YS02001748YS02001751        0.01      0.01      0.03      0.01         0.01
  YS02001751YS02001754        0.03      0.03      0.07      0.01         0.01
  YS02001754YS02001757        0.10      0.10      0.24      0.01         0.01
  YS02001757CaochengTiaoxuchi        0.16      0.24      0.96      0.22         0.10
  YS02001759YS02001757        0.20      0.20      0.24      0.01         0.01
  YS02001762YS02001759        0.18      0.18      0.20      0.01         0.01
  YS02001765YS02001762        0.16      0.16      0.18      0.01         0.01
  YS02001767YS02001765        0.15      0.15      0.16      0.01         0.01
  YS02001770YS02001767        0.15      0.16      0.15      0.30         0.12
  YS02001774YS02001770        0.14      0.14      0.18      0.01         0.01
  YS02001779YS02001774        0.09      0.09      0.18      0.01         0.01
  YS02001783YS02001784        0.24      0.26      0.24      0.38         0.24
  YS02001784YS02001785        0.16      0.24      0.16      0.53         0.16
  YS02001786YS02001788        0.01      0.16      0.01      0.46         0.01
  YS02001790YS02001791        0.01      0.01      0.01      0.23         0.01
  YS02001793JiankangQianchi        0.01      0.01      5.99      0.01         0.01
  YS02001882YS02001884        0.22      0.22      0.23      0.01         0.01
  YS02001884YS02001887        0.25      0.25      0.26      0.01         0.01
  YS02001887YS02001890        0.27      0.27      0.28      0.01         0.01
  YS02001890YS02001895        0.21      0.21      0.29      0.01         0.01
  YS02001895YS02001898        0.21      0.21      0.21      0.01         0.01
  YS02001898YS02001901        0.21      0.21      0.25      0.01         0.01
  YS02001901YS02001904        0.24      0.24      0.25      0.01         0.01
  YS02001904YS02001907        0.24      0.24      0.44      0.01         0.01
  YS02001907YS02006553        0.54      0.54      0.58      0.01         0.01
  YS02001910YS02001907        0.28      0.28      0.43      0.01         0.01
  YS02001915YS02001910        0.22      0.22      0.28      0.01         0.01
  YS02001918YS02001915        0.15      0.15      0.22      0.01         0.01
  YS02001920YS02001918        0.15      0.15      0.16      0.01         0.01
  YS02001923YS02001920        0.11      0.11      0.16      0.01         0.01
  YS02001926YS02001923        0.01      0.01      0.01      0.01         0.01
  YS02001929YS02001926        0.01      0.01      0.01      0.01         0.01
  YS02006553YS02006556        0.35      0.35      0.44      0.01         0.01
  YS02006556YS02006558        0.39      0.39      0.45      0.01         0.01
  YS02006558YS02006561        0.18      0.35      0.18      0.50         0.18
  YS02006561YS02001783        0.12      0.12      0.26      0.01         0.01
  YS02163301YS02001633        0.45      0.45      0.49      0.01         0.01
  YS02163601YS02164001        0.40      0.40      0.49      0.15         0.01
  YS02164001YS02001641        0.39      0.40      0.39      0.53         0.38
  YSB1154YSB6556              0.44      0.44      0.54      0.01         0.01
  YSB1171HS02004479           0.36      0.36      0.54      0.01         0.01
  YSB1174YSB1171              0.49      0.49      0.73      0.01         0.01
  YSB6556YSB1171              0.44      0.44      0.86      0.01         0.01
  
  
  ***************
  Pumping Summary
  ***************
  
  ---------------------------------------------------------------------------------------------------------
                                                  Min       Avg       Max     Total     Power    % Time Off
                        Percent   Number of      Flow      Flow      Flow    Volume     Usage    Pump Curve
  Pump                 Utilized   Start-Ups       LPS       LPS       LPS  10^6 ltr     Kw-hr    Low   High
  ---------------------------------------------------------------------------------------------------------
  CC-R1                   14.99          23      0.00    683.00    683.00     2.949     51.33    0.0   51.4
  CC-R2                   12.95          15      0.00    683.00    683.00     2.548     43.84    0.0   66.7
  CC-S1                   18.77          19      0.00    200.00    200.00     1.081      7.51    0.0    0.0
  CC-S2                   20.57          37      0.00    200.00    200.00     1.185      8.26    0.0    0.0
  JK-R1                    4.50          11      0.00   1000.00   1000.00     1.296     12.72    0.0    0.0
  JK-R2                    0.20           2      0.00   1000.00   1000.00     0.057      0.42    0.0    0.0
  JK-S                    15.26          42      0.00    300.00    300.00     1.319     21.58    0.0    0.0
  XR-1                    97.91           2      0.00     95.00     95.00     2.679      9.61    0.0    0.0
  XR-2                    93.94           2      0.00     95.00     95.00     2.570      8.77    0.0    0.0
  XR-3                     0.00           1      0.00     95.00     95.00     0.000      0.00    0.0    0.0
  XR-4                     0.00           1      0.00     95.00     95.00     0.000      0.00    0.0    0.0
  

  Analysis begun on:  Wed Jul 12 14:39:27 2023
  Analysis ended on:  Wed Jul 12 14:39:44 2023
  Total elapsed time: 00:00:17