
  OWA STORM WATER MANAGEMENT MODEL - VERSION v5.1.14 (OWA 2022-07-31)
  --------------------------------------------------------------

  WARNING 04: minimum elevation drop used for Conduit WS02004404WS02004405
  WARNING 03: negative offset ignored for Link YS02001904YS02001907
  
  *********************************************************
  NOTE: The summary statistics displayed in this report are
  based on results found at every computational time step,  
  not just on results from each reporting time step.
  *********************************************************
  
  ****************
  Analysis Options
  ****************
  Flow Units ............... LPS
  Process Models:
    Rainfall/Runoff ........ YES
    RDII ................... NO
    Snowmelt ............... NO
    Groundwater ............ NO
    Flow Routing ........... YES
    Ponding Allowed ........ NO
    Water Quality .......... NO
  Infiltration Method ...... HORTON
  Flow Routing Method ...... DYNWAVE
  Surcharge Method ......... EXTRAN
  Starting Date ............ 08/28/2015 08:00:00
  Ending Date .............. 08/28/2015 16:00:00
  Antecedent Dry Days ...... 8.0
  Report Time Step ......... 00:01:00
  Wet Time Step ............ 00:01:00
  Dry Time Step ............ 00:01:00
  Routing Time Step ........ 30.00 sec
  Variable Time Step ....... YES
  Maximum Trials ........... 8
  Number of Threads ........ 1
  Head Tolerance ........... 0.001500 m
  
  
  **************************        Volume         Depth
  Runoff Quantity Continuity     hectare-m            mm
  **************************     ---------       -------
  Initial LID Storage ......         0.072         1.184
  Total Precipitation ......         3.219        53.135
  Evaporation Loss .........         0.000         0.000
  Infiltration Loss ........         0.199         3.280
  Surface Runoff ...........         2.431        40.123
  Final Storage ............         0.663        10.941
  Continuity Error (%) .....        -0.044
  
  
  **************************        Volume        Volume
  Flow Routing Continuity        hectare-m      10^6 ltr
  **************************     ---------     ---------
  Dry Weather Inflow .......         0.630         6.296
  Wet Weather Inflow .......         2.430        24.304
  Groundwater Inflow .......         0.000         0.000
  RDII Inflow ..............         0.000         0.000
  External Inflow ..........         0.105         1.045
  External Outflow .........         2.198        21.985
  Flooding Loss ............         0.959         9.590
  Evaporation Loss .........         0.000         0.000
  Exfiltration Loss ........         0.000         0.000
  Initial Stored Volume ....         0.303         3.031
  Final Stored Volume ......         0.322         3.216
  Continuity Error (%) .....        -0.329
  
  
  *************************
  Highest Continuity Errors
  *************************
  Node YS02001583 (-11.85%)
  Node YS02001884 (5.00%)
  Node WS02006256 (-2.20%)
  Node HS02004842 (1.81%)
  Node YS02001774 (1.36%)
  
  
  ***************************
  Time-Step Critical Elements
  ***************************
  Link WS02006280WS02006229 (50.30%)
  Link WS02006238WS02006235 (13.21%)
  Link WS02006252WS02006251 (12.07%)
  Link WS02004404WS02004405 (5.43%)
  Link YS02001791YS02001793 (5.28%)
  
  
  ********************************
  Highest Flow Instability Indexes
  ********************************
  Link WS02004404WS02004405 (26)
  Link WS02006252WS02006251 (26)
  Link WS02006256WS02006235 (24)
  Link WS02006238WS02006235 (23)
  Link WS02006113WS02006111 (22)
  
  
  *************************
  Routing Time Step Summary
  *************************
  Minimum Time Step           :     0.00 sec
  Average Time Step           :     2.61 sec
  Maximum Time Step           :     6.46 sec
  Percent in Steady State     :    -0.00
  Average Iterations per Step :     3.74
  Percent Not Converging      :    17.85
  
  
  ***************************
  Subcatchment Runoff Summary
  ***************************
  
  ------------------------------------------------------------------------------------------------------------------------------
                            Total      Total      Total      Total     Imperv       Perv      Total       Total     Peak  Runoff
                           Precip      Runon       Evap      Infil     Runoff     Runoff     Runoff      Runoff   Runoff   Coeff
  Subcatchment                 mm         mm         mm         mm         mm         mm         mm    10^6 ltr      LPS
  ------------------------------------------------------------------------------------------------------------------------------
  sub0                      53.14       0.00       0.00       0.99      48.17       2.73      50.89        0.04    28.78   0.958
  sub1                      53.14       0.00       0.00       1.49      41.27       3.75      45.02        0.30   174.21   0.847
  sub10                     53.14       0.00       0.00       0.96      38.68       2.50      41.18        0.45   275.31   0.775
  sub11                     53.14       0.00       0.00       0.87      35.95       2.33      38.29        0.44   289.32   0.721
  sub12                     53.14       0.00       0.00       1.53      36.55       4.07      40.62        0.36   246.14   0.765
  sub14                     53.14       0.00       0.00       0.95      34.05       2.51      36.55        0.35   222.34   0.688
  sub15                     53.14       0.00       0.00       4.25      30.61       9.22      39.83        0.69   378.50   0.750
  sub16                     53.14       0.00       0.00       4.53      29.86      10.56      40.42        0.42   257.73   0.761
  sub17                     53.14       0.00       0.00       4.84      32.95      11.07      44.02        0.38   222.80   0.829
  sub2                      53.14       0.00       0.00       6.65      30.17      11.56      41.73        0.39   175.97   0.785
  sub22                     53.14       0.00       0.00       7.49      28.57      14.64      43.21        2.73  1370.81   0.813
  sub23                     53.14       0.00       0.00       5.66      29.42      12.08      41.50        1.98  1087.62   0.781
  sub3                      53.14       0.00       0.00       7.10      29.87      10.95      40.82        0.92   376.24   0.768
  sub4                      53.14       0.00       0.00       1.61      40.63       3.56      44.19        0.92   411.71   0.832
  sub5                      53.14       0.00       0.00       0.85      39.93       2.23      42.16        0.48   283.62   0.793
  sub60                     53.14       0.00       0.00       1.36      35.16       3.56      38.72        0.51   333.31   0.729
  sub61                     53.14       0.00       0.00       2.09      35.13       5.30      40.43        0.74   482.29   0.761
  sub62                     53.14       0.00       0.00       0.93      37.45       2.42      39.87        1.09   657.95   0.750
  sub63                     53.14       0.00       0.00       3.80      30.09       8.82      38.91        0.88   528.51   0.732
  sub64                     53.14       0.00       0.00       1.83      34.26       4.38      38.64        0.93   528.55   0.727
  sub65                     53.14       0.00       0.00       1.68      36.97       4.00      40.97        1.13   613.32   0.771
  sub66                     53.14       0.00       0.00       4.38      29.09       7.84      36.92        1.72   769.80   0.695
  sub67                     53.14       0.00       0.00       0.92      38.40       2.50      40.90        0.76   521.53   0.770
  sub68                     53.14       0.00       0.00       1.60      33.91       4.07      37.97        1.05   654.89   0.715
  sub69                     53.14       0.00       0.00       1.45      35.71       4.87      40.58        1.50   799.79   0.764
  sub7                      53.14       0.00       0.00       1.01      36.49       2.69      39.19        0.13    87.52   0.738
  sub70                     53.14       0.00       0.00       4.78      28.60      10.01      38.62        1.12   446.64   0.727
  sub71                     53.14       0.00       0.00       0.85      34.02       2.19      36.20        0.95   539.17   0.681
  sub72                     53.14       0.00       0.00       0.81      36.74       2.03      38.77        0.53   273.99   0.730
  sub8                      53.14       0.00       0.00       0.99      35.46       2.61      38.08        0.24   156.47   0.717
  sub9                      53.14       0.00       0.00       0.96      34.38       2.53      36.91        0.18   113.96   0.695
  

  ***********************
  LID Performance Summary
  ***********************

  --------------------------------------------------------------------------------------------------------------------
                                         Total      Evap     Infil   Surface    Drain    Initial     Final  Continuity
                                        Inflow      Loss      Loss   Outflow   Outflow   Storage   Storage       Error
  Subcatchment      LID Control             mm        mm        mm        mm        mm        mm        mm           %
  --------------------------------------------------------------------------------------------------------------------
  sub1              GreenRoof            53.14      0.00      0.00      0.00      0.00      7.05     60.27       -0.14
  sub10             GreenRoof            53.14      0.00      0.00      0.00      0.00      7.05     60.27       -0.14
  sub11             GreenRoof            53.14      0.00      0.00      0.00      0.00      7.05     60.27       -0.14
  sub12             GreenRoof            53.14      0.00      0.00      0.00      0.00      7.05     60.27       -0.14
  sub14             GreenRoof            53.14      0.00      0.00      0.00      0.00      7.05     60.27       -0.14
  sub15             GreenRoof            53.14      0.00      0.00      0.00      0.00      7.05     60.27       -0.14
  sub16             GreenRoof            53.14      0.00      0.00      0.00      0.00      7.05     60.27       -0.14
  sub17             GreenRoof            53.14      0.00      0.00      0.00      0.00      7.05     60.27       -0.14
  sub2              GreenRoof            53.14      0.00      0.00      0.00      0.00      7.05     60.27       -0.14
  sub22             GreenRoof            53.14      0.00      0.00      0.00      0.00      7.05     60.27       -0.14
  sub23             GreenRoof            53.14      0.00      0.00      0.00      0.00      7.05     60.27       -0.14
  sub3              GreenRoof            53.14      0.00      0.00      0.00      0.00      7.05     60.27       -0.14
  sub4              GreenRoof            53.14      0.00      0.00      0.00      0.00      7.05     60.27       -0.14
  sub5              GreenRoof            53.14      0.00      0.00      0.00      0.00      7.05     60.27       -0.14
  sub60             GreenRoof            53.14      0.00      0.00      0.00      0.00      7.05     60.27       -0.14
  sub61             GreenRoof            53.14      0.00      0.00      0.00      0.00      7.05     60.27       -0.14
  sub62             GreenRoof            53.14      0.00      0.00      0.00      0.00      7.05     60.27       -0.14
  sub63             GreenRoof            53.14      0.00      0.00      0.00      0.00      7.05     60.27       -0.14
  sub64             GreenRoof            53.14      0.00      0.00      0.00      0.00      7.05     60.27       -0.14
  sub65             GreenRoof            53.14      0.00      0.00      0.00      0.00      7.05     60.27       -0.14
  sub66             GreenRoof            53.14      0.00      0.00      0.00      0.00      7.05     60.27       -0.14
  sub67             GreenRoof            53.14      0.00      0.00      0.00      0.00      7.05     60.27       -0.14
  sub68             GreenRoof            53.14      0.00      0.00      0.00      0.00      7.05     60.27       -0.14
  sub69             GreenRoof            53.14      0.00      0.00      0.00      0.00      7.05     60.27       -0.14
  sub7              GreenRoof            53.14      0.00      0.00      0.00      0.00      7.05     60.27       -0.14
  sub70             GreenRoof            53.14      0.00      0.00      0.00      0.00      7.05     60.27       -0.14
  sub71             GreenRoof            53.14      0.00      0.00      0.00      0.00      7.05     60.27       -0.14
  sub72             GreenRoof            53.14      0.00      0.00      0.00      0.00      7.05     60.27       -0.14
  sub8              GreenRoof            53.14      0.00      0.00      0.00      0.00      7.05     60.27       -0.14
  sub9              GreenRoof            53.14      0.00      0.00      0.00      0.00      7.05     60.27       -0.14
  
  ******************
  Node Depth Summary
  ******************
  
  ---------------------------------------------------------------------------------
                                 Average  Maximum  Maximum  Time of Max    Reported
                                   Depth    Depth      HGL   Occurrence   Max Depth
  Node                 Type       Meters   Meters   Meters  days hr:min      Meters
  ---------------------------------------------------------------------------------
  HS02004478           JUNCTION     0.22     1.58    10.81     0  01:49        1.52
  HS02004479           JUNCTION     0.30     1.69    10.89     0  01:49        1.68
  HS02004480           JUNCTION     0.27     1.67    10.91     0  01:49        1.67
  HS02004770           JUNCTION     0.27     1.42    11.25     0  01:47        1.42
  HS02004777           JUNCTION     0.29     1.48    11.28     0  01:46        1.45
  HS02004785           JUNCTION     0.19     1.49    11.39     0  01:47        1.42
  HS02004788           JUNCTION     0.15     1.42    11.32     0  01:47        1.41
  HS02004792           JUNCTION     0.21     1.60    11.12     0  01:45        1.60
  HS02004799           JUNCTION     0.33     1.76    10.97     0  01:48        1.76
  HS02004802           JUNCTION     0.32     1.80    10.93     0  01:49        1.66
  HS02004807           JUNCTION     0.28     1.92    11.09     0  01:49        1.68
  HS02004817           JUNCTION     0.58     2.41    11.26     0  01:49        2.05
  HS02004824           JUNCTION     0.15     1.98    11.38     0  01:49        1.58
  HS02004830           JUNCTION     0.15     1.99    11.45     0  01:49        1.73
  HS02004837           JUNCTION     0.12     1.92    11.50     0  01:49        1.78
  HS02004842           JUNCTION     0.41     2.22    11.49     0  01:49        1.67
  HS02004848           JUNCTION     0.10     1.97    11.58     0  01:49        1.34
  HS02004852           JUNCTION     0.11     2.03    11.54     0  01:49        1.38
  HS02004856           JUNCTION     0.17     2.05    11.48     0  01:49        1.43
  HS02004862           JUNCTION     0.12     2.00    11.38     0  01:49        1.41
  HS02004870           JUNCTION     0.12     2.10    11.39     0  01:49        1.42
  HS02004876           JUNCTION     0.17     2.26    11.29     0  01:49        1.55
  HS02004881           JUNCTION     0.11     2.15    11.18     0  01:49        1.37
  HS02004901           JUNCTION     0.28     1.42    11.24     0  01:47        1.42
  WS02001211           JUNCTION     0.63     0.81     5.64     0  01:53        0.81
  WS02001212           JUNCTION     0.38     0.57     5.63     0  01:53        0.57
  WS02001213           JUNCTION     0.59     0.86     5.63     0  01:54        0.86
  WS02003059           JUNCTION     0.66     0.93     5.62     0  01:54        0.93
  WS02003060           JUNCTION     0.38     0.68     5.61     0  01:54        0.68
  WS02003066           JUNCTION     0.23     0.45     6.00     0  01:52        0.45
  WS02003067           JUNCTION     0.54     0.88     6.20     0  01:49        0.88
  WS02003069           JUNCTION     0.43     0.77     5.35     0  01:55        0.77
  WS02003072           JUNCTION     0.49     0.81     5.18     0  01:56        0.81
  WS02003073           JUNCTION     0.29     0.51     4.57     0  01:56        0.51
  WS02004138           JUNCTION     0.13     0.14     7.39     0  00:29        0.14
  WS02004139           JUNCTION     0.57     0.74     5.65     0  01:52        0.74
  WS02004401           JUNCTION     0.77     1.89     7.89     0  01:49        1.89
  WS02004402           JUNCTION     0.78     1.86     7.82     0  01:49        1.86
  WS02004403           JUNCTION     0.79     1.75     7.68     0  01:49        1.75
  WS02004404           JUNCTION     0.85     1.74     7.59     0  01:49        1.73
  WS02004405           JUNCTION     0.83     1.68     7.53     0  01:49        1.68
  WS02004406           JUNCTION     0.82     1.57     7.40     0  01:49        1.57
  WS02004407           JUNCTION     0.26     0.88     7.20     0  01:49        0.88
  WS02004409           JUNCTION     0.53     1.39     7.16     0  01:49        1.39
  WS02004410           JUNCTION     0.54     1.27     6.99     0  01:50        1.27
  WS02004411           JUNCTION     0.54     1.19     6.87     0  01:52        1.18
  WS02004412           JUNCTION     0.54     1.09     6.73     0  01:51        1.09
  WS02004413           JUNCTION     0.68     1.14     6.61     0  01:50        1.14
  WS02006109           JUNCTION     0.98     2.64     9.26     0  01:47        2.64
  WS02006110           JUNCTION     0.91     2.41     9.00     0  01:49        2.41
  WS02006111           JUNCTION     0.43     1.76     8.47     0  01:49        1.76
  WS02006112           JUNCTION     0.98     2.44     8.32     0  01:49        2.44
  WS02006113           JUNCTION     0.50     1.85     8.74     0  01:49        1.85
  WS02006115           JUNCTION     0.69     1.98     8.12     0  01:49        1.98
  WS02006116           JUNCTION     0.76     1.97     8.01     0  01:49        1.97
  WS02006228           JUNCTION     1.04     3.03     9.68     0  01:49        3.03
  WS02006229           JUNCTION     1.06     3.25     9.94     0  01:49        3.25
  WS02006230           JUNCTION     0.99     2.65     9.39     0  01:45        2.65
  WS02006231           JUNCTION     0.72     2.19     9.31     0  01:52        2.19
  WS02006232           JUNCTION     0.82     2.18     9.22     0  01:45        2.18
  WS02006234           JUNCTION     0.70     1.96     9.12     0  01:44        1.96
  WS02006235           JUNCTION     0.72     2.00     9.16     0  02:40        1.97
  WS02006238           JUNCTION     0.74     2.04     9.18     0  02:40        1.94
  WS02006239           JUNCTION     0.68     1.90     9.11     0  02:40        1.81
  WS02006240           JUNCTION     0.62     1.71     9.00     0  02:40        1.64
  WS02006242           JUNCTION     0.66     1.55     8.82     0  01:40        1.55
  WS02006243           JUNCTION     0.55     1.48     8.90     0  01:40        1.37
  WS02006245           JUNCTION     0.53     1.56     9.04     0  01:40        1.27
  WS02006247           JUNCTION     0.54     1.47     8.97     0  01:40        1.23
  WS02006248           JUNCTION     0.48     1.10     8.69     0  01:40        1.10
  WS02006249           JUNCTION     0.50     1.09     8.69     0  01:40        1.09
  WS02006251           JUNCTION     0.60     2.21     9.88     0  01:49        2.07
  WS02006252           JUNCTION     0.40     1.50     9.74     0  00:00        1.50
  WS02006253           JUNCTION     0.67     3.52    11.16     0  01:41        2.69
  WS02006256           JUNCTION     1.09     2.35     9.28     0  00:00        2.35
  WS02006280           JUNCTION     0.29     1.81    10.08     0  01:49        1.81
  WS02006284           JUNCTION     0.55     2.00    10.40     0  01:49        2.00
  WS02006287           JUNCTION     0.29     1.73    10.69     0  01:49        1.71
  WSF200               JUNCTION     0.22     0.51     5.75     0  01:52        0.51
  YS02001580           JUNCTION     0.07     1.05     9.59     0  01:47        0.77
  YS02001583           JUNCTION     0.10     1.14     9.64     0  01:47        0.83
  YS02001586           JUNCTION     0.17     1.13     9.30     0  01:47        1.13
  YS02001590           JUNCTION     0.26     1.40     9.26     0  01:47        1.37
  YS02001593           JUNCTION     0.20     1.36     9.22     0  01:47        1.31
  YS02001596           JUNCTION     0.27     1.70     9.12     0  01:47        1.67
  YS02001600           JUNCTION     0.34     1.87     9.00     0  01:47        1.86
  YS02001601           JUNCTION     0.53     2.06     8.90     0  01:47        2.06
  YS02001602           JUNCTION     0.44     1.87     8.77     0  01:47        1.87
  YS02001605           JUNCTION     0.41     1.78     8.68     0  01:47        1.78
  YS02001607           JUNCTION     0.40     1.66     8.51     0  01:54        1.66
  YS02001610           JUNCTION     0.44     1.68     8.48     0  01:47        1.68
  YS02001613           JUNCTION     0.40     1.70     8.54     0  01:49        1.70
  YS02001616           JUNCTION     0.33     1.61     8.52     0  01:47        1.61
  YS02001619           JUNCTION     0.31     1.61     8.54     0  01:47        1.61
  YS02001622           JUNCTION     0.30     1.57     8.47     0  01:47        1.56
  YS02001625           JUNCTION     0.55     1.78     8.38     0  01:47        1.78
  YS02001629           JUNCTION     0.41     1.85     8.40     0  01:47        1.85
  YS02001633           JUNCTION     0.49     2.05     8.50     0  01:49        2.01
  YS02001641           JUNCTION     0.47     1.97     8.40     0  01:52        1.97
  YS02001644           JUNCTION     0.46     1.92     8.35     0  01:51        1.92
  YS02001647           JUNCTION     0.24     1.67     8.28     0  01:52        1.67
  YS02001649           JUNCTION     0.27     1.82     8.21     0  01:52        1.77
  YS02001652           JUNCTION     0.17     1.69     8.29     0  01:52        1.52
  YS02001655           JUNCTION     0.12     1.59     8.44     0  01:52        1.21
  YS02001658           JUNCTION     0.08     1.58     8.72     0  01:51        0.93
  YS02001661           JUNCTION     0.13     0.76     8.17     0  01:51        0.76
  YS02001664           JUNCTION     0.05     0.28     8.20     0  01:51        0.28
  YS02001745           JUNCTION     0.05     0.48     8.00     0  01:51        0.33
  YS02001748           JUNCTION     0.07     0.92     8.00     0  01:52        0.91
  YS02001751           JUNCTION     0.09     1.50     8.37     0  01:51        1.08
  YS02001754           JUNCTION     0.13     1.57     8.18     0  01:51        1.38
  YS02001757           JUNCTION     0.29     1.76     8.02     0  01:52        1.76
  YS02001759           JUNCTION     0.23     1.78     8.14     0  01:52        1.78
  YS02001762           JUNCTION     0.23     1.97     8.37     0  01:50        1.97
  YS02001765           JUNCTION     0.21     2.03     8.48     0  01:50        2.03
  YS02001767           JUNCTION     0.20     2.03     8.52     0  01:50        2.03
  YS02001770           JUNCTION     0.21     1.95     8.44     0  01:52        1.95
  YS02001774           JUNCTION     0.28     2.05     8.47     0  01:52        2.05
  YS02001779           JUNCTION     0.11     1.68     8.37     0  01:50        1.68
  YS02001783           JUNCTION     0.22     1.37     7.51     0  01:49        1.25
  YS02001784           JUNCTION     0.24     1.22     7.29     0  01:49        1.12
  YS02001786           JUNCTION     0.20     0.92     6.95     0  01:49        0.89
  YS02001788           JUNCTION     0.15     0.62     6.60     0  01:50        0.62
  YS02001790           JUNCTION     0.17     0.72     6.37     0  01:50        0.72
  YS02001791           JUNCTION     0.11     0.44     5.91     0  01:50        0.44
  YS02001793           JUNCTION     0.06     0.28     5.11     0  01:57        0.26
  YS02001882           JUNCTION     0.28     1.78     8.50     0  01:48        1.60
  YS02001884           JUNCTION     0.36     1.86     8.47     0  01:48        1.72
  YS02001887           JUNCTION     0.44     1.88     8.42     0  01:48        1.79
  YS02001890           JUNCTION     0.47     1.81     8.32     0  01:48        1.81
  YS02001895           JUNCTION     0.25     1.56     8.31     0  01:49        1.56
  YS02001898           JUNCTION     0.25     1.57     8.30     0  01:49        1.56
  YS02001901           JUNCTION     0.36     1.68     8.28     0  01:50        1.66
  YS02001904           JUNCTION     0.34     1.65     8.28     0  01:54        1.65
  YS02001907           JUNCTION     0.66     1.96     8.25     0  01:49        1.96
  YS02001910           JUNCTION     0.46     1.96     8.47     0  01:50        1.81
  YS02001915           JUNCTION     0.27     1.90     8.62     0  01:50        1.65
  YS02001918           JUNCTION     0.13     1.81     8.88     0  01:50        1.33
  YS02001920           JUNCTION     0.21     2.14     9.15     0  01:50        1.41
  YS02001923           JUNCTION     0.10     2.03     9.29     0  01:50        1.17
  YS02001926           JUNCTION     0.14     1.90     9.35     0  01:50        1.00
  YS02001929           JUNCTION     0.07     1.78     9.47     0  01:50        0.71
  YS02006553           JUNCTION     0.66     2.00     8.29     0  01:49        1.97
  YS02006556           JUNCTION     0.63     2.02     8.33     0  01:49        1.95
  YS02006558           JUNCTION     0.68     2.08     8.35     0  01:49        1.99
  YS02006561           JUNCTION     0.13     1.15     7.81     0  01:49        0.92
  YS02163301           JUNCTION     0.44     1.93     8.45     0  01:49        1.91
  YS02163601           JUNCTION     0.52     2.06     8.46     0  01:52        2.06
  YS02164001           JUNCTION     0.45     1.96     8.42     0  01:52        1.96
  YSB1154              JUNCTION     0.43     1.93    10.99     0  01:49        1.93
  YSB1171              JUNCTION     0.58     1.95    10.85     0  01:47        1.95
  YSB1174              JUNCTION     0.39     1.82    10.93     0  01:49        1.82
  YSB6556              JUNCTION     0.33     1.78    10.94     0  01:47        1.71
  CC-1                 OUTFALL      0.00     0.00     0.00     0  00:00        0.00
  CC-2                 OUTFALL      0.00     0.00     0.00     0  00:00        0.00
  JK-1                 OUTFALL      0.00     0.00     0.00     0  00:00        0.00
  JK-2                 OUTFALL      0.00     0.00     0.00     0  00:00        0.00
  WSC                  OUTFALL      0.29     0.51     1.18     0  01:57        0.51
  CC-storage           STORAGE      0.73     1.32     6.82     0  02:25        1.32
  JK-storage           STORAGE      1.75     4.22     5.02     0  01:56        4.14
  XR-storage           STORAGE      7.85     9.26     7.26     0  08:00        9.26
  
  
  *******************
  Node Inflow Summary
  *******************
  
  -------------------------------------------------------------------------------------------------
                                  Maximum  Maximum                  Lateral       Total        Flow
                                  Lateral    Total  Time of Max      Inflow      Inflow     Balance
                                   Inflow   Inflow   Occurrence      Volume      Volume       Error
  Node                 Type           LPS      LPS  days hr:min    10^6 ltr    10^6 ltr     Percent
  -------------------------------------------------------------------------------------------------
  HS02004478           JUNCTION      0.00  2247.15     0  01:52           0         7.4      -0.013
  HS02004479           JUNCTION      0.00   512.08     0  01:49           0       0.751       0.122
  HS02004480           JUNCTION      0.00  2169.19     0  01:47           0         5.8       0.034
  HS02004770           JUNCTION   1087.62  1087.62     0  01:51        1.98        2.21       0.131
  HS02004777           JUNCTION      0.03   822.94     0  01:46    0.000864        1.74       0.283
  HS02004785           JUNCTION      0.15   852.09     0  01:46     0.00432        1.73       0.034
  HS02004788           JUNCTION    380.17   803.32     0  02:05       0.733        2.46      -0.027
  HS02004792           JUNCTION   1371.09  2092.62     0  01:51        2.74         5.2       0.006
  HS02004799           JUNCTION    222.34  1780.92     0  01:47       0.348        5.06       0.053
  HS02004802           JUNCTION      0.00   724.96     0  01:51           0        1.63       0.237
  HS02004807           JUNCTION    289.32   724.66     0  01:52       0.445        1.67       0.239
  HS02004817           JUNCTION      0.60   472.07     0  01:47      0.0173        1.28       1.315
  HS02004824           JUNCTION    411.76   736.47     0  01:47       0.923        1.47       0.039
  HS02004830           JUNCTION      0.15   732.39     0  01:47     0.00432       0.753       0.136
  HS02004837           JUNCTION    281.66   960.81     0  01:47       0.637        1.06       0.076
  HS02004842           JUNCTION      0.00   963.01     0  01:48           0       0.726       1.839
  HS02004848           JUNCTION    376.24  1226.73     0  01:48       0.919        1.47      -0.002
  HS02004852           JUNCTION      0.00  1162.42     0  01:48           0        1.31       0.000
  HS02004856           JUNCTION    113.96  1260.87     0  01:49       0.178        1.49       0.084
  HS02004862           JUNCTION    176.17  1382.89     0  01:49       0.395        1.88       0.009
  HS02004870           JUNCTION    156.47  1554.80     0  01:49       0.243        2.12      -0.006
  HS02004876           JUNCTION    174.21  1528.28     0  01:49       0.299        2.42       0.006
  HS02004881           JUNCTION     87.52  1598.54     0  01:49       0.132        2.55      -0.030
  HS02004901           JUNCTION    257.73   466.48     0  01:53       0.423       0.612       0.284
  WS02001211           JUNCTION      7.35   213.90     0  01:47       0.212        5.44       0.612
  WS02001212           JUNCTION      0.00   213.36     0  02:34           0        5.41       0.290
  WS02001213           JUNCTION      0.00   216.67     0  02:34           0        5.39       0.333
  WS02003059           JUNCTION      0.00   222.73     0  02:33           0        5.38       0.597
  WS02003060           JUNCTION     16.53  1487.08     0  01:54       0.476        13.6       0.110
  WS02003066           JUNCTION      0.00  1276.65     0  01:50           0         7.8       0.020
  WS02003067           JUNCTION      0.00  1275.80     0  01:50           0         7.8       0.058
  WS02003069           JUNCTION      0.32  1483.85     0  01:55     0.00922        13.6       0.116
  WS02003072           JUNCTION      0.00  1482.32     0  01:55           0        13.6       0.156
  WS02003073           JUNCTION      1.82  1483.37     0  01:56      0.0524        13.6       0.162
  WS02004138           JUNCTION      0.00   380.00     0  00:00           0        5.25       0.054
  WS02004139           JUNCTION      0.32   191.06     0  00:29     0.00924        5.26       0.508
  WS02004401           JUNCTION      0.00  1274.90     0  01:50           0        7.91       0.141
  WS02004402           JUNCTION      0.00  1278.11     0  01:49           0         7.9       0.140
  WS02004403           JUNCTION      0.00  1281.51     0  01:49           0        7.89       0.136
  WS02004404           JUNCTION      0.16  1285.36     0  01:49     0.00467        7.89       0.120
  WS02004405           JUNCTION      0.04  1290.82     0  01:49      0.0011        7.88       0.157
  WS02004406           JUNCTION      0.00  1294.62     0  01:49           0        7.86       0.278
  WS02004407           JUNCTION      0.00  1295.52     0  01:49           0        7.84       0.022
  WS02004409           JUNCTION      0.00  1275.54     0  01:50           0        7.84       0.044
  WS02004410           JUNCTION      0.00  1275.84     0  01:50           0        7.84       0.065
  WS02004411           JUNCTION      0.00  1275.86     0  01:50           0        7.83       0.082
  WS02004412           JUNCTION      0.00  1275.67     0  01:50           0        7.83       0.107
  WS02004413           JUNCTION      0.00  1275.60     0  01:50           0        7.82       0.185
  WS02006109           JUNCTION      1.23  1260.61     0  01:51      0.0354        7.72       0.132
  WS02006110           JUNCTION      0.00  1120.51     0  02:05           0        7.58       0.110
  WS02006111           JUNCTION      0.00  1118.55     0  02:04           0        7.57       0.010
  WS02006112           JUNCTION    222.80  1277.71     0  01:49       0.378        7.95       0.245
  WS02006113           JUNCTION      0.00  1119.68     0  02:05           0        7.57       0.030
  WS02006115           JUNCTION      0.00  1276.16     0  01:49           0        7.93       0.097
  WS02006116           JUNCTION      0.00  1274.62     0  01:50           0        7.92       0.058
  WS02006228           JUNCTION      0.00  1260.38     0  01:51           0        7.69       0.069
  WS02006229           JUNCTION      0.00  2248.66     0  01:51           0        9.46       0.090
  WS02006230           JUNCTION     10.28   998.05     0  01:51       0.296        3.88       0.265
  WS02006231           JUNCTION      0.00   503.95     0  03:20           0        2.93      -0.173
  WS02006232           JUNCTION      0.00   504.71     0  03:20           0        2.92       0.320
  WS02006234           JUNCTION      0.00   505.73     0  03:20           0        2.91      -0.300
  WS02006235           JUNCTION      0.00   506.92     0  03:20           0           3       0.352
  WS02006238           JUNCTION      0.00   415.73     0  02:12           0        2.57      -0.272
  WS02006239           JUNCTION      0.00   415.55     0  03:22           0         2.5      -0.166
  WS02006240           JUNCTION      0.00   416.36     0  03:22           0        2.46       0.006
  WS02006242           JUNCTION      0.00   416.02     0  03:22           0        2.45       0.015
  WS02006243           JUNCTION      0.00   435.69     0  01:33           0        2.13      -0.221
  WS02006245           JUNCTION      0.00   452.72     0  01:32           0        2.15       0.784
  WS02006247           JUNCTION      0.00   460.43     0  01:33           0        2.14      -0.063
  WS02006248           JUNCTION      0.00   478.57     0  01:32           0        2.32      -0.301
  WS02006249           JUNCTION      0.00  1331.91     0  01:49           0        5.21       0.346
  WS02006251           JUNCTION      0.08  1545.52     0  01:49     0.00222        5.29      -0.049
  WS02006252           JUNCTION      0.00   421.57     0  01:49           0        2.73      -0.516
  WS02006253           JUNCTION     28.78  1542.79     0  01:49      0.0412        2.67       0.058
  WS02006256           JUNCTION      0.00   300.00     0  00:00           0        1.45      -2.154
  WS02006280           JUNCTION      0.00  2247.84     0  01:51           0        7.38       0.012
  WS02006284           JUNCTION      0.10  2246.71     0  01:51     0.00275        7.38      -0.007
  WS02006287           JUNCTION      0.00  2246.54     0  01:51           0        7.38       0.008
  WSF200               JUNCTION      0.00  1276.84     0  01:50           0         7.8       0.011
  YS02001580           JUNCTION      0.00   155.03     0  01:47           0     0.00424      -4.927
  YS02001583           JUNCTION      0.00   280.44     0  01:47           0      0.0146     -10.597
  YS02001586           JUNCTION    446.64   446.64     0  01:53        1.12        1.13       0.152
  YS02001590           JUNCTION      0.00   317.90     0  02:00           0        1.03      -0.054
  YS02001593           JUNCTION      0.00   317.90     0  01:54           0        1.04       0.027
  YS02001596           JUNCTION      0.00   317.94     0  01:58           0        1.04      -0.001
  YS02001600           JUNCTION      0.00   317.95     0  02:00           0        1.04       0.004
  YS02001601           JUNCTION    799.79  1117.30     0  01:51         1.5        2.54       0.032
  YS02001602           JUNCTION      0.00   565.98     0  01:47           0        1.91       0.020
  YS02001605           JUNCTION      0.00   565.95     0  01:47           0        1.85       0.019
  YS02001607           JUNCTION      0.00   565.58     0  01:47           0        1.85       0.099
  YS02001610           JUNCTION      0.00   546.65     0  01:47           0        1.85       0.130
  YS02001613           JUNCTION      0.00   554.45     0  01:47           0        1.68       0.104
  YS02001616           JUNCTION      0.00   561.73     0  01:47           0        1.67       0.030
  YS02001619           JUNCTION    769.80   948.04     0  01:47        1.72         3.4      -0.013
  YS02001622           JUNCTION      0.00   952.55     0  01:47           0        3.39      -0.015
  YS02001625           JUNCTION      0.00   953.96     0  01:47           0        3.39       0.261
  YS02001629           JUNCTION      0.00   957.02     0  01:47           0        3.16       0.008
  YS02001633           JUNCTION    613.52  1451.31     0  01:49        1.13         4.3       0.077
  YS02001641           JUNCTION      0.00  1462.27     0  01:49           0         4.3       0.063
  YS02001644           JUNCTION    528.59  1946.24     0  01:49       0.929        5.22       0.063
  YS02001647           JUNCTION      0.00  1948.54     0  01:49           0        5.21       0.008
  YS02001649           JUNCTION      0.00  2256.37     0  01:49           0         6.1       0.001
  YS02001652           JUNCTION      0.00   611.38     0  01:52           0       0.888      -0.199
  YS02001655           JUNCTION      0.15   611.93     0  01:52     0.00443       0.888       0.022
  YS02001658           JUNCTION      0.00   689.97     0  01:52           0       0.883      -0.060
  YS02001661           JUNCTION      0.00   536.09     0  01:51           0       0.883       0.036
  YS02001664           JUNCTION    528.51   528.51     0  01:50       0.883       0.883      -0.006
  YS02001745           JUNCTION    333.32   333.32     0  01:50       0.509       0.509       0.255
  YS02001748           JUNCTION      0.04   507.32     0  01:52      0.0013        0.51      -0.255
  YS02001751           JUNCTION      0.01   458.72     0  01:53    0.000317       0.515       0.097
  YS02001754           JUNCTION      0.26   384.27     0  01:54     0.00749       0.526      -0.342
  YS02001757           JUNCTION      0.00  3298.05     0  01:52           0        8.48       0.081
  YS02001759           JUNCTION    482.33  1217.81     0  01:50       0.743        1.85      -0.023
  YS02001762           JUNCTION      0.00   726.83     0  01:50           0        1.11       0.001
  YS02001765           JUNCTION      0.00   714.22     0  01:50           0        1.11      -0.012
  YS02001767           JUNCTION      0.54   705.01     0  01:50      0.0154        1.11      -0.033
  YS02001770           JUNCTION    658.10   696.94     0  01:50         1.1        1.14      -0.052
  YS02001774           JUNCTION      0.00   441.31     0  01:50           0      0.0625       1.379
  YS02001779           JUNCTION      0.01   455.28     0  01:50    0.000144        0.02      -3.964
  YS02001783           JUNCTION      0.00  1150.35     0  01:50           0        3.07       0.007
  YS02001784           JUNCTION      1.06  1151.86     0  01:50      0.0305         3.1       0.016
  YS02001786           JUNCTION      0.06  1153.00     0  01:50     0.00162         3.1       0.017
  YS02001788           JUNCTION      0.07  1160.44     0  01:49     0.00204         3.1       0.009
  YS02001790           JUNCTION      0.15  1171.11     0  01:50     0.00446         3.1       0.031
  YS02001791           JUNCTION      0.00  1273.40     0  01:50           0         3.1      -0.029
  YS02001793           JUNCTION      0.00  1257.59     0  01:50           0         3.1       0.008
  YS02001882           JUNCTION      0.00    93.93     0  01:48           0       0.013       5.495
  YS02001884           JUNCTION      0.00   134.28     0  01:48           0      0.0487       5.263
  YS02001887           JUNCTION    521.98   531.59     0  01:49       0.774       0.807       0.545
  YS02001890           JUNCTION      0.00   540.73     0  01:48           0       0.766       0.679
  YS02001895           JUNCTION      0.00   549.91     0  01:48           0        0.76       0.193
  YS02001898           JUNCTION      0.00   557.52     0  01:48           0       0.759      -0.014
  YS02001901           JUNCTION      0.00   569.06     0  01:48           0       0.762       0.414
  YS02001904           JUNCTION      0.00   573.53     0  01:48           0       0.766       0.373
  YS02001907           JUNCTION      0.00  1499.03     0  01:51           0        2.32       0.781
  YS02001910           JUNCTION      0.00   998.11     0  01:51           0        1.56       0.466
  YS02001915           JUNCTION    539.19   997.56     0  01:51       0.947        1.61       0.074
  YS02001918           JUNCTION      0.00   578.37     0  01:49           0       0.696       0.019
  YS02001920           JUNCTION      2.87   485.95     0  01:49      0.0827       0.673       0.067
  YS02001923           JUNCTION      0.04   648.29     0  01:49     0.00109       0.574      -0.186
  YS02001926           JUNCTION      0.05   939.87     0  01:49      0.0015       0.556      -0.127
  YS02001929           JUNCTION    273.99   764.80     0  01:50       0.533       0.538      -0.312
  YS02006553           JUNCTION      0.00   786.89     0  02:01           0        2.04       0.577
  YS02006556           JUNCTION      0.00   786.89     0  02:01           0        2.05       0.396
  YS02006558           JUNCTION    655.77  1184.49     0  01:49        1.07         3.1       0.117
  YS02006561           JUNCTION      0.00  1182.73     0  01:49           0        3.07      -0.001
  YS02163301           JUNCTION      0.00   920.01     0  01:48           0        3.16       0.046
  YS02163601           JUNCTION      0.11  1451.13     0  01:49     0.00317        4.29       0.111
  YS02164001           JUNCTION      0.00  1454.55     0  01:49           0        4.29       0.052
  YSB1154              JUNCTION    283.62   283.62     0  01:51       0.478       0.478       0.301
  YSB1171              JUNCTION      0.00   527.62     0  01:50           0        0.84       0.751
  YSB1174              JUNCTION    246.14   246.14     0  01:50       0.355       0.356       0.367
  YSB6556              JUNCTION      0.00   283.73     0  01:51           0       0.479       0.257
  CC-1                 OUTFALL       0.00   683.00     0  00:00           0        3.89       0.000
  CC-2                 OUTFALL       0.00   683.00     0  00:00           0        2.71       0.000
  JK-1                 OUTFALL       0.00  1000.00     0  00:00           0        1.73       0.000
  JK-2                 OUTFALL       0.00  1000.00     0  00:00           0      0.0484       0.000
  WSC                  OUTFALL       0.00  1482.37     0  01:57           0        13.6       0.000
  CC-storage           STORAGE       0.00  3304.15     0  01:52           0        10.7      -0.279
  JK-storage           STORAGE       0.00  1276.37     0  01:50           0        3.25      -0.538
  XR-storage           STORAGE     200.00   200.00     0  00:00        5.76        6.36       0.001
  
  
  **********************
  Node Surcharge Summary
  **********************
  
  Surcharging occurs when water rises above the top of the highest conduit.
  ---------------------------------------------------------------------
                                               Max. Height   Min. Depth
                                   Hours       Above Crown    Below Rim
  Node                 Type      Surcharged         Meters       Meters
  ---------------------------------------------------------------------
  HS02004478           JUNCTION        0.35          0.659        0.281
  HS02004479           JUNCTION        0.48          0.887        0.163
  HS02004480           JUNCTION        0.51          0.957        0.143
  HS02004770           JUNCTION        0.43          0.720        0.000
  HS02004777           JUNCTION        0.44          0.780        0.000
  HS02004785           JUNCTION        0.39          0.790        0.000
  HS02004788           JUNCTION        0.38          0.720        0.000
  HS02004792           JUNCTION        0.49          0.900        0.000
  HS02004799           JUNCTION        0.59          1.060        0.000
  HS02004802           JUNCTION        0.52          1.087        0.123
  HS02004807           JUNCTION        0.49          1.220        0.000
  HS02004817           JUNCTION        1.05          1.711        0.029
  HS02004824           JUNCTION        0.37          1.281        0.029
  HS02004830           JUNCTION        0.35          1.285        0.045
  HS02004837           JUNCTION        0.31          1.224        0.116
  HS02004842           JUNCTION        0.43          1.520        0.000
  HS02004848           JUNCTION        0.28          1.274        0.096
  HS02004852           JUNCTION        0.31          1.329        0.091
  HS02004856           JUNCTION        0.29          1.284        0.016
  HS02004862           JUNCTION        0.32          1.300        0.000
  HS02004870           JUNCTION        0.34          1.400        0.000
  HS02004876           JUNCTION        0.41          1.560        0.000
  HS02004881           JUNCTION        0.39          1.450        0.000
  HS02004901           JUNCTION        0.44          0.720        0.000
  WS02004401           JUNCTION        1.53          0.894        0.766
  WS02004402           JUNCTION        1.59          0.857        0.883
  WS02004403           JUNCTION        1.59          0.755        1.275
  WS02004404           JUNCTION        1.74          0.736        2.044
  WS02004405           JUNCTION        1.73          0.679        2.121
  WS02004406           JUNCTION        1.68          0.569        1.881
  WS02004409           JUNCTION        0.80          0.387        1.973
  WS02004410           JUNCTION        0.78          0.274        2.266
  WS02004411           JUNCTION        0.70          0.185        2.345
  WS02004412           JUNCTION        0.62          0.092        2.218
  WS02004413           JUNCTION        1.20          0.137        2.063
  WS02006109           JUNCTION        1.98          1.820        0.000
  WS02006110           JUNCTION        1.85          1.504        0.346
  WS02006111           JUNCTION        1.11          0.952        0.918
  WS02006112           JUNCTION        1.89          1.436        0.244
  WS02006113           JUNCTION        1.13          1.049        0.881
  WS02006115           JUNCTION        1.43          0.974        1.276
  WS02006116           JUNCTION        1.44          0.915        1.375
  WS02006228           JUNCTION        1.98          2.200        0.000
  WS02006229           JUNCTION        0.77          1.070        0.000
  WS02006230           JUNCTION        1.75          1.570        0.000
  WS02006231           JUNCTION        1.83          1.482        0.048
  WS02006232           JUNCTION        1.92          1.480        0.000
  WS02006234           JUNCTION        1.82          1.240        0.000
  WS02006235           JUNCTION        1.85          1.290        0.000
  WS02006238           JUNCTION        1.88          1.319        0.111
  WS02006239           JUNCTION        1.80          1.158        0.132
  WS02006240           JUNCTION        1.79          0.995        0.395
  WS02006242           JUNCTION        1.81          0.820        0.000
  WS02006243           JUNCTION        1.77          0.770        0.000
  WS02006245           JUNCTION        1.76          0.850        0.000
  WS02006247           JUNCTION        1.77          0.760        0.000
  WS02006248           JUNCTION        1.76          0.380        0.000
  WS02006249           JUNCTION        1.76          0.390        0.000
  WS02006251           JUNCTION        1.71          1.180        0.000
  WS02006252           JUNCTION        1.98          1.100        0.000
  WS02006253           JUNCTION        1.72          2.480        0.000
  WS02006256           JUNCTION        5.99          2.050        0.000
  WS02006280           JUNCTION        0.61          0.761        0.019
  WS02006284           JUNCTION        0.53          0.718        0.082
  WS02006287           JUNCTION        0.45          0.735        0.155
  YS02001580           JUNCTION        0.38          0.450        0.000
  YS02001583           JUNCTION        0.39          0.500        0.000
  YS02001586           JUNCTION        0.50          0.510        0.000
  YS02001590           JUNCTION        0.56          0.750        0.000
  YS02001593           JUNCTION        0.56          0.739        0.101
  YS02001596           JUNCTION        0.66          0.974        0.096
  YS02001600           JUNCTION        0.79          1.190        0.000
  YS02001601           JUNCTION        1.20          1.440        0.000
  YS02001602           JUNCTION        1.05          1.270        0.000
  YS02001605           JUNCTION        0.99          1.180        0.000
  YS02001607           JUNCTION        0.50          0.658        0.022
  YS02001610           JUNCTION        0.52          0.680        0.000
  YS02001613           JUNCTION        0.49          0.700        0.000
  YS02001616           JUNCTION        0.45          0.610        0.000
  YS02001619           JUNCTION        0.44          0.610        0.000
  YS02001622           JUNCTION        0.43          0.568        0.052
  YS02001625           JUNCTION        0.61          0.780        0.000
  YS02001629           JUNCTION        0.37          0.470        0.000
  YS02001633           JUNCTION        0.62          1.027        0.033
  YS02001641           JUNCTION        0.52          0.966        0.134
  YS02001644           JUNCTION        0.47          0.920        0.000
  YS02001647           JUNCTION        0.29          0.670        0.230
  YS02001649           JUNCTION        0.34          0.823        0.227
  YS02001652           JUNCTION        0.21          0.661        0.469
  YS02001655           JUNCTION        0.09          0.586        0.614
  YS02001658           JUNCTION        0.01          0.578        0.722
  YS02001751           JUNCTION        0.02          0.495        0.705
  YS02001754           JUNCTION        0.09          0.524        0.626
  YS02001757           JUNCTION        0.37          0.757        0.453
  YS02001759           JUNCTION        0.29          0.778        0.432
  YS02001762           JUNCTION        0.27          0.971        0.179
  YS02001765           JUNCTION        0.24          1.025        0.075
  YS02001767           JUNCTION        0.22          1.030        0.000
  YS02001770           JUNCTION        0.20          0.920        0.000
  YS02001774           JUNCTION        0.26          1.050        0.000
  YS02001779           JUNCTION        0.10          0.680        0.000
  YS02001783           JUNCTION        0.35          0.571        1.029
  YS02001784           JUNCTION        0.33          0.418        1.072
  YS02001786           JUNCTION        0.24          0.124        1.306
  YS02001882           JUNCTION        0.30          0.783        0.047
  YS02001884           JUNCTION        0.31          0.796        0.074
  YS02001887           JUNCTION        0.34          0.831        0.119
  YS02001890           JUNCTION        0.35          0.760        0.000
  YS02001895           JUNCTION        0.29          0.564        0.186
  YS02001898           JUNCTION        0.29          0.535        0.205
  YS02001901           JUNCTION        0.33          0.676        0.194
  YS02001904           JUNCTION        0.32          0.648        0.202
  YS02001907           JUNCTION        0.51          0.950        0.000
  YS02001910           JUNCTION        0.38          0.962        0.138
  YS02001915           JUNCTION        0.30          0.898        0.102
  YS02001918           JUNCTION        0.22          0.810        0.000
  YS02001920           JUNCTION        0.24          1.140        0.000
  YS02001923           JUNCTION        0.01          0.820        0.000
  YS02001926           JUNCTION        0.01          0.900        0.000
  YS02001929           JUNCTION        0.01          0.780        0.000
  YS02006553           JUNCTION        0.53          1.003        0.187
  YS02006556           JUNCTION        0.44          0.980        0.370
  YS02006558           JUNCTION        0.43          0.981        0.419
  YS02006561           JUNCTION        0.19          0.349        0.801
  YS02163301           JUNCTION        0.60          0.935        0.095
  YS02163601           JUNCTION        0.64          1.065        0.015
  YS02164001           JUNCTION        0.53          0.963        0.137
  YSB1154              JUNCTION        0.71          1.235        0.165
  YSB1171              JUNCTION        0.71          1.100        0.000
  YSB1174              JUNCTION        0.62          1.121        0.129
  YSB6556              JUNCTION        0.56          1.075        0.025
  
  
  *********************
  Node Flooding Summary
  *********************
  
  Flooding refers to all water that overflows a node, whether it ponds or not.
  --------------------------------------------------------------------------
                                                             Total   Maximum
                                 Maximum   Time of Max       Flood    Ponded
                        Hours       Rate    Occurrence      Volume     Depth
  Node                 Flooded       LPS   days hr:min    10^6 ltr    Meters
  --------------------------------------------------------------------------
  HS02004770              0.23    622.83      0  01:50       0.283     0.000
  HS02004777              0.01    108.98      0  01:47       0.002     0.000
  HS02004785              0.01    371.08      0  01:47       0.003     0.000
  HS02004788              0.01    227.16      0  01:47       0.001     0.000
  HS02004792              0.24    947.74      0  01:51       0.485     0.000
  HS02004799              0.04     96.40      0  01:49       0.005     0.000
  HS02004807              0.01     14.95      0  01:49       0.000     0.000
  HS02004842              0.01     49.78      0  01:49       0.000     0.000
  HS02004862              0.01    108.22      0  01:49       0.001     0.000
  HS02004870              0.01     75.19      0  01:49       0.000     0.000
  HS02004876              0.01     45.18      0  01:49       0.000     0.000
  HS02004881              0.01    603.14      0  01:49       0.002     0.000
  HS02004901              0.31    466.48      0  01:53       0.381     0.000
  WS02006109              0.29    209.57      0  01:51       0.129     0.000
  WS02006228              0.01      0.39      0  01:49       0.000     0.000
  WS02006229              0.01      2.93      0  01:49       0.000     0.000
  WS02006230              0.54    545.16      0  01:51       0.670     0.000
  WS02006232              0.12      0.58      0  02:01       0.000     0.000
  WS02006234              0.59    129.53      0  01:49       0.247     0.000
  WS02006235              0.01     28.96      0  02:40       0.000     0.000
  WS02006242              0.71    137.34      0  02:04       0.306     0.000
  WS02006243              0.01     57.19      0  01:40       0.000     0.000
  WS02006245              0.01     11.85      0  01:40       0.000     0.000
  WS02006247              0.01     86.06      0  01:40       0.000     0.000
  WS02006248              1.10    338.93      0  02:20       0.964     0.000
  WS02006249              1.73   1290.76      0  01:49       3.656     0.000
  WS02006251              0.01    143.80      0  01:49       0.001     0.000
  WS02006252              0.33    420.78      0  01:49       0.134     0.000
  WS02006253              0.01    386.27      0  01:41       0.000     0.000
  WS02006256              1.34    295.04      0  02:16       0.786     0.000
  YS02001580              0.01     58.33      0  01:47       0.000     0.000
  YS02001583              0.01    168.67      0  01:47       0.000     0.000
  YS02001586              0.28    148.73      0  01:47       0.080     0.000
  YS02001590              0.01      1.60      0  01:47       0.000     0.000
  YS02001600              0.01      5.43      0  01:47       0.000     0.000
  YS02001601              0.43    719.50      0  01:51       0.628     0.000
  YS02001602              0.30     62.15      0  02:01       0.061     0.000
  YS02001605              0.01      3.90      0  01:47       0.000     0.000
  YS02001610              0.26    274.93      0  01:54       0.168     0.000
  YS02001613              0.01      0.81      0  01:49       0.000     0.000
  YS02001616              0.01     41.80      0  01:47       0.000     0.000
  YS02001619              0.01     88.03      0  01:47       0.000     0.000
  YS02001625              0.21    646.06      0  01:53       0.222     0.000
  YS02001629              0.03    308.65      0  01:47       0.003     0.000
  YS02001644              0.01      4.99      0  01:51       0.000     0.000
  YS02001767              0.01     35.86      0  01:50       0.000     0.000
  YS02001770              0.01      9.95      0  01:52       0.000     0.000
  YS02001774              0.01      6.10      0  01:52       0.000     0.000
  YS02001779              0.01    398.00      0  01:50       0.003     0.000
  YS02001890              0.02     49.38      0  01:48       0.001     0.000
  YS02001907              0.17   1002.80      0  01:51       0.269     0.000
  YS02001918              0.01    177.45      0  01:50       0.003     0.000
  YS02001920              0.01     49.79      0  01:50       0.000     0.000
  YS02001923              0.01    104.74      0  01:50       0.000     0.000
  YS02001926              0.01    589.98      0  01:50       0.004     0.000
  YS02001929              0.01    389.40      0  01:50       0.001     0.000
  YSB1171                 0.13    337.68      0  01:51       0.091     0.000
  
  
  **********************
  Storage Volume Summary
  **********************
  
  --------------------------------------------------------------------------------------------------
                         Average     Avg  Evap Exfil       Maximum     Max    Time of Max    Maximum
                          Volume    Pcnt  Pcnt  Pcnt        Volume    Pcnt     Occurrence    Outflow
  Storage Unit           1000 m3    Full  Loss  Loss       1000 m3    Full    days hr:min        LPS
  --------------------------------------------------------------------------------------------------
  CC-storage               2.038      32     0     0         3.674      57       0  02:25    1783.53
  JK-storage               0.088      30     0     0         0.212      73       0  01:56    2300.00
  XR-storage               0.941      65     0     0         1.111      77       0  08:00     380.00
  
  
  ***********************
  Outfall Loading Summary
  ***********************
  
  -----------------------------------------------------------
                         Flow       Avg       Max       Total
                         Freq      Flow      Flow      Volume
  Outfall Node           Pcnt       LPS       LPS    10^6 ltr
  -----------------------------------------------------------
  CC-1                  36.43    683.00    683.00       3.893
  CC-2                  26.09    683.00    683.00       2.712
  JK-1                  10.06   1000.00   1000.00       1.730
  JK-2                   0.19   1000.00   1000.00       0.048
  WSC                   99.95    616.37   1482.37      13.602
  -----------------------------------------------------------
  System                34.54   3982.37   1482.37      21.985
  
  
  ********************
  Link Flow Summary
  ********************
  
  -----------------------------------------------------------------------------
                                 Maximum  Time of Max   Maximum    Max/    Max/
                                  |Flow|   Occurrence   |Veloc|    Full    Full
  Link                 Type          LPS  days hr:min     m/sec    Flow   Depth
  -----------------------------------------------------------------------------
  1                    CONDUIT   1482.37     0  01:57      3.68    0.52    0.51
  HS02004478WS02006287 CONDUIT   2246.54     0  01:51      2.56    0.63    1.00
  HS02004479HS02004480 CONDUIT    514.38     0  01:49      0.73    0.50    1.00
  HS02004480HS02004478 CONDUIT   2175.87     0  01:47      3.11    9.16    1.00
  HS02004770HS02004777 CONDUIT    822.91     0  01:46      1.18    1.50    1.00
  HS02004777HS02004785 CONDUIT    851.94     0  01:46      1.33    1.05    1.00
  HS02004785HS02004788 CONDUIT    623.72     0  02:05      1.35    4.70    1.00
  HS02004788HS02004792 CONDUIT    804.00     0  02:05      1.40    0.53    1.00
  HS02004792HS02004799 CONDUIT   1626.20     0  01:47      2.32    1.00    1.00
  HS02004799HS02004480 CONDUIT   1772.79     0  01:47      2.53    2.24    1.00
  HS02004802HS02004478 CONDUIT    724.97     0  01:51      1.04    0.64    1.00
  HS02004807HS02004802 CONDUIT    724.96     0  01:51      1.04    1.38    1.00
  HS02004817HS02004807 CONDUIT    471.47     0  01:47      0.67    0.28    1.00
  HS02004817HS02004824 CONDUIT    470.98     0  01:47      0.67    0.21    1.00
  HS02004824HS02004830 CONDUIT    732.24     0  01:47      1.07    0.96    1.00
  HS02004830HS02004837 CONDUIT    743.14     0  01:47      1.13    0.74    1.00
  HS02004837HS02004842 CONDUIT    963.01     0  01:48      1.38    0.57    1.00
  HS02004842HS02004848 CONDUIT    963.61     0  01:48      1.51    0.56    1.00
  HS02004848HS02004852 CONDUIT   1162.42     0  01:48      1.73    1.31    1.00
  HS02004852HS02004856 CONDUIT   1152.71     0  01:48      1.65    1.32    1.00
  HS02004856HS02004862 CONDUIT   1226.20     0  01:49      1.75    1.22    1.00
  HS02004862HS02004870 CONDUIT   1402.59     0  01:49      2.09    1.52    1.00
  HS02004870HS02004876 CONDUIT   1363.20     0  01:49      1.95    0.90    1.00
  HS02004876HS02004881 CONDUIT   1512.53     0  01:49      2.31   16.09    1.00
  HS02004881HS02006253 CONDUIT   1514.03     0  01:49      2.71    0.30    1.00
  HS02004901HS02004770 CONDUIT    265.49     0  02:00      0.38    1.00    1.00
  WS02001211WS02001212 CONDUIT    213.36     0  02:34      0.54    0.16    0.69
  WS02001212WS02001213 CONDUIT    216.67     0  02:34      1.04    0.33    0.56
  WS02001213WS02003059 CONDUIT    222.73     0  02:33      0.47    0.37    0.89
  WS02003059WS02003060 CONDUIT    227.21     0  02:33      0.66    0.15    0.81
  WS02003060WS02003069 CONDUIT   1483.53     0  01:55      2.08    0.58    0.60
  WS02003066WSF200     CONDUIT   1276.84     0  01:50      3.33    0.22    0.38
  WS02003067WS02003066 CONDUIT   1276.65     0  01:50      1.98    0.41    0.56
  WS02003069WS02003072 CONDUIT   1482.32     0  01:55      1.88    0.71    0.66
  WS02003072WS02003073 CONDUIT   1481.55     0  01:56      2.04    3.20    0.61
  WS02004138WS02004139 CONDUIT    190.74     0  00:29      2.16    0.04    0.41
  WS02004139WS02001211 CONDUIT    206.55     0  01:47      0.54    0.26    0.60
  WS02004401WS02004402 CONDUIT   1278.11     0  01:49      1.63    1.53    1.00
  WS02004402WS02004403 CONDUIT   1281.51     0  01:49      1.63    1.84    1.00
  WS02004403WS02004404 CONDUIT   1285.20     0  01:49      1.64    0.93    1.00
  WS02004404WS02004405 CONDUIT   1290.78     0  01:49      1.64   12.65    1.00
  WS02004405WS02004406 CONDUIT   1294.62     0  01:49      1.65    2.55    1.00
  WS02004406WS02004407 CONDUIT   1295.52     0  01:49      1.82    0.58    0.94
  WS02004407WS02004409 CONDUIT   1275.54     0  01:50      1.90    0.45    0.94
  WS02004409WS02004410 CONDUIT   1275.84     0  01:50      1.62    1.65    1.00
  WS02004410WS02004411 CONDUIT   1275.86     0  01:50      1.62    1.74    1.00
  WS02004411WS02004412 CONDUIT   1275.67     0  01:50      1.62    1.81    1.00
  WS02004412WS02004413 CONDUIT   1275.60     0  01:50      1.62    0.85    1.00
  WS02004413WS02003067 CONDUIT   1275.80     0  01:50      1.98    0.55    0.76
  WS02006109WS02006110 CONDUIT   1120.51     0  02:05      2.23    2.15    1.00
  WS02006110WS02006113 CONDUIT   1119.68     0  02:05      2.23    1.02    1.00
  WS02006111WS02006112 CONDUIT   1118.54     0  02:04      2.23    0.53    1.00
  WS02006112WS02006115 CONDUIT   1276.16     0  01:49      1.62    0.75    1.00
  WS02006113WS02006111 CONDUIT   1118.55     0  02:04      2.68    1.34    1.00
  WS02006115WS02006116 CONDUIT   1274.62     0  01:50      1.62    1.64    1.00
  WS02006116WS02004401 CONDUIT   1274.90     0  01:50      1.62    1.76    1.00
  WS02006228WS02006109 CONDUIT   1259.38     0  01:51      2.51    5.50    1.00
  WS02006229WS02006228 CONDUIT   1260.38     0  01:51      2.51    4.17    1.00
  WS02006230WS02006229 CONDUIT    987.77     0  01:51      2.57   21.98    1.00
  WS02006231WS02006230 CONDUIT    503.19     0  03:20      1.31    7.63    1.00
  WS02006232WS02006231 CONDUIT    503.95     0  03:20      1.31    1.06    1.00
  WS02006234WS02006232 CONDUIT    504.71     0  03:20      1.41    1.02    1.00
  WS02006235WS02006234 CONDUIT    505.73     0  03:20      1.31    5.34    1.00
  WS02006238WS02006235 CONDUIT    415.73     0  02:12      1.48    0.93    1.00
  WS02006239WS02006238 CONDUIT    415.17     0  01:52      1.11    1.33    1.00
  WS02006240WS02006239 CONDUIT    415.55     0  03:22      1.30    1.31    1.00
  WS02006242WS02006240 CONDUIT    416.36     0  03:22      1.20    1.65    1.00
  WS02006243WS02006242 CONDUIT    416.02     0  03:22      1.36    0.89    1.00
  WS02006245WS02006243 CONDUIT    435.69     0  01:33      1.42    1.29    1.00
  WS02006247WS02006245 CONDUIT    452.72     0  01:32      1.47    3.59    1.00
  WS02006248WS02006247 CONDUIT    460.43     0  01:33      1.44    1.00    1.00
  WS02006249WS02006248 CONDUIT    478.57     0  01:32      1.42    2.62    1.00
  WS02006251WS02006249 CONDUIT   1331.91     0  01:49      3.46    3.84    1.00
  WS02006252WS02006251 CONDUIT    406.82     0  02:19     14.41    1.49    1.00
  WS02006253WS02006251 CONDUIT   1545.44     0  01:49      4.02    4.63    1.00
  WS02006256WS02006235 CONDUIT    289.01     0  06:15      4.23    3.06    1.00
  WS02006280WS02006229 CONDUIT   2248.66     0  01:51      4.45    0.48    1.00
  WS02006284WS02006280 CONDUIT   2247.84     0  01:51      2.95    0.94    1.00
  WS02006287WS02006284 CONDUIT   2246.62     0  01:51      2.86    1.04    1.00
  WSF200WS02003060     CONDUIT   1278.38     0  01:50      2.42    0.28    0.50
  YS02001580YS02001583 CONDUIT    155.03     0  01:47      0.86    0.60    1.00
  YS02001583YS02001586 CONDUIT    203.49     0  01:47      0.86    0.31    1.00
  YS02001586YS02001590 CONDUIT    317.90     0  02:00      1.28    0.56    1.00
  YS02001590YS02001593 CONDUIT    317.90     0  01:54      1.12    2.00    1.00
  YS02001593YS02001596 CONDUIT    317.94     0  01:58      1.74    0.50    1.00
  YS02001596YS02001600 CONDUIT    317.95     0  02:00      1.20    0.62    1.00
  YS02001600YS02001601 CONDUIT    318.00     0  01:52      1.12    0.55    1.00
  YS02001601YS02001602 CONDUIT    565.98     0  01:47      2.00    2.04    1.00
  YS02001602YS02001605 CONDUIT    565.95     0  01:47      2.00   11.98    1.00
  YS02001605YS02001607 CONDUIT    565.58     0  01:47      2.00    3.10    1.00
  YS02001607YS02001610 CONDUIT    546.65     0  01:47      0.70    0.52    1.00
  YS02001610YS02001613 CONDUIT    554.45     0  01:47      0.71    0.64    1.00
  YS02001613YS02001616 CONDUIT    561.73     0  01:47      0.72    0.48    1.00
  YS02001616YS02001619 CONDUIT    505.27     0  02:12      0.67    0.88    1.00
  YS02001619YS02001622 CONDUIT    952.55     0  01:47      1.24    1.40    1.00
  YS02001622YS02001625 CONDUIT    953.96     0  01:47      1.21    0.51    1.00
  YS02001625YS02001629 CONDUIT    957.02     0  01:47      1.22    0.46    1.00
  YS02001629YS02163301 CONDUIT    920.01     0  01:48      1.17    1.13    1.00
  YS02001633YS02163601 CONDUIT   1451.02     0  01:49      1.85    1.52    1.00
  YS02001641YS02001644 CONDUIT   1465.89     0  01:49      1.87    4.74    1.00
  YS02001644YS02001647 CONDUIT   1948.54     0  01:49      2.49    1.14    1.00
  YS02001647YS02001649 CONDUIT   1910.39     0  01:49      2.46    1.01    1.00
  YS02001649YS02001757 CONDUIT   2258.69     0  01:49      2.88    1.37    1.00
  YS02001652YS02001649 CONDUIT    611.95     0  01:52      0.83    0.30    1.00
  YS02001655YS02001652 CONDUIT    611.38     0  01:52      1.41    0.30    1.00
  YS02001658YS02001655 CONDUIT    611.78     0  01:52      2.03    0.26    1.00
  YS02001661YS02001658 CONDUIT    689.97     0  01:52      2.43    0.27    0.84
  YS02001664YS02001661 CONDUIT    536.09     0  01:51      2.34    0.17    0.52
  YS02001745YS02001748 CONDUIT    507.28     0  01:52      2.27    0.20    0.60
  YS02001748YS02001751 CONDUIT    458.71     0  01:53      1.84    0.23    0.96
  YS02001751YS02001754 CONDUIT    384.01     0  01:54      1.53    0.19    1.00
  YS02001754YS02001757 CONDUIT    385.76     0  01:53      0.52    0.16    1.00
  YS02001757CaochengTiaoxuchi CONDUIT   3304.15     0  01:52      4.66    1.43    1.00
  YS02001759YS02001757 CONDUIT   1225.91     0  01:50      1.56    0.87    1.00
  YS02001762YS02001759 CONDUIT    739.02     0  01:50      0.94    0.85    1.00
  YS02001765YS02001762 CONDUIT    726.83     0  01:50      0.93    0.68    1.00
  YS02001767YS02001765 CONDUIT    714.22     0  01:50      0.91    0.90    1.00
  YS02001770YS02001767 CONDUIT    704.48     0  01:50      0.90    2.79    1.00
  YS02001774YS02001770 CONDUIT    441.31     0  01:50      0.56    0.28    1.00
  YS02001779YS02001774 CONDUIT    455.28     0  01:50      0.58    0.23    1.00
  YS02001783YS02001784 CONDUIT   1150.80     0  01:50      2.29    1.59    1.00
  YS02001784YS02001785 CONDUIT   1152.95     0  01:50      2.29    2.68    1.00
  YS02001786YS02001788 CONDUIT   1160.37     0  01:49      2.49    2.24    0.89
  YS02001788YS02001790 CONDUIT   1170.96     0  01:50      2.69    0.86    0.83
  YS02001790YS02001791 CONDUIT   1273.40     0  01:50      3.42    1.39    0.70
  YS02001791YS02001793 CONDUIT   1257.59     0  01:50      6.73    0.54    0.43
  YS02001793JiankangQianchi CONDUIT   1276.37     0  01:50      2.56    0.10    0.64
  YS02001882YS02001884 CONDUIT     93.93     0  01:48      0.13    0.11    1.00
  YS02001884YS02001887 CONDUIT    134.28     0  01:48      0.17    0.18    1.00
  YS02001887YS02001890 CONDUIT    540.73     0  01:48      0.69    0.93    1.00
  YS02001890YS02001895 CONDUIT    549.91     0  01:48      0.70    0.26    1.00
  YS02001895YS02001898 CONDUIT    557.52     0  01:48      0.71    0.97    1.00
  YS02001898YS02001901 CONDUIT    569.06     0  01:48      0.72    0.37    1.00
  YS02001901YS02001904 CONDUIT    573.53     0  01:48      0.73    0.89    1.00
  YS02001904YS02001907 CONDUIT    578.94     0  01:48      0.74    0.20    1.00
  YS02001907YS02006553 CONDUIT    786.89     0  02:01      0.87    0.93    1.00
  YS02001910YS02001907 CONDUIT    997.81     0  01:51      1.27    0.56    1.00
  YS02001915YS02001910 CONDUIT    998.11     0  01:51      1.27    0.50    1.00
  YS02001918YS02001915 CONDUIT    578.37     0  01:49      0.78    0.32    1.00
  YS02001920YS02001918 CONDUIT    483.08     0  01:49      0.65    0.47    1.00
  YS02001923YS02001920 CONDUIT    485.29     0  01:49      0.76    0.22    1.00
  YS02001926YS02001923 CONDUIT    719.55     0  01:49      1.15    1.03    1.00
  YS02001929YS02001926 CONDUIT    504.73     0  01:50      1.20    0.24    1.00
  YS02006553YS02006556 CONDUIT    786.89     0  02:01      1.00    0.67    1.00
  YS02006556YS02006558 CONDUIT    788.51     0  02:01      1.00    0.62    1.00
  YS02006558YS02006561 CONDUIT   1182.73     0  01:49      4.18    2.61    1.00
  YS02006561YS02001783 CONDUIT   1150.35     0  01:50      2.29    0.60    1.00
  YS02163301YS02001633 CONDUIT    920.88     0  01:48      1.17    0.87    1.00
  YS02163601YS02164001 CONDUIT   1454.55     0  01:49      1.85    1.29    1.00
  YS02164001YS02001641 CONDUIT   1462.27     0  01:49      1.86    2.00    1.00
  YSB1154YSB6556       CONDUIT    283.73     0  01:51      0.74    0.51    1.00
  YSB1171HS02004479    CONDUIT    512.08     0  01:49      1.02    0.34    1.00
  YSB1174YSB1171       CONDUIT    246.34     0  01:50      0.64    0.38    1.00
  YSB6556YSB1171       CONDUIT    284.18     0  01:51      0.74    0.29    1.00
  CC-R1                PUMP       683.00     0  00:00              1.00
  CC-R2                PUMP       683.00     0  00:00              1.00
  CC-S1                PUMP       200.00     0  00:00              1.00
  CC-S2                PUMP       200.00     0  00:00              1.00
  JK-R1                PUMP      1000.00     0  00:00              1.00
  JK-R2                PUMP      1000.00     0  00:00              1.00
  JK-S                 PUMP       300.00     0  00:00              1.00
  XR-1                 PUMP        95.00     0  00:00              1.00
  XR-2                 PUMP        95.00     0  00:00              1.00
  XR-3                 PUMP        95.00     0  00:00              1.00
  XR-4                 PUMP        95.00     0  00:00              1.00
  
  
  ***************************
  Flow Classification Summary
  ***************************
  
  -------------------------------------------------------------------------------------
                      Adjusted    ---------- Fraction of Time in Flow Class ---------- 
                       /Actual         Up    Down  Sub   Sup   Up    Down  Norm  Inlet 
  Conduit               Length    Dry  Dry   Dry   Crit  Crit  Crit  Crit  Ltd   Ctrl  
  -------------------------------------------------------------------------------------
  1                       1.00   0.00  0.00  0.00  0.00  1.00  0.00  0.00  0.35  0.00
  HS02004478WS02006287    1.00   0.12  0.00  0.00  0.60  0.28  0.00  0.00  0.61  0.00
  HS02004479HS02004480    1.00   0.06  0.00  0.00  0.94  0.00  0.00  0.00  0.11  0.00
  HS02004480HS02004478    1.00   0.11  0.00  0.00  0.50  0.00  0.00  0.39  0.00  0.00
  HS02004770HS02004777    1.00   0.00  0.10  0.00  0.90  0.00  0.00  0.00  0.03  0.00
  HS02004777HS02004785    1.00   0.00  0.00  0.00  1.00  0.00  0.00  0.00  0.12  0.00
  HS02004785HS02004788    1.00   0.00  0.00  0.00  1.00  0.00  0.00  0.00  0.00  0.00
  HS02004788HS02004792    1.00   0.00  0.00  0.00  0.99  0.01  0.00  0.00  0.92  0.00
  HS02004792HS02004799    1.00   0.00  0.00  0.00  0.98  0.02  0.00  0.00  0.88  0.00
  HS02004799HS02004480    1.00   0.00  0.05  0.00  0.88  0.00  0.06  0.00  0.00  0.00
  HS02004802HS02004478    1.00   0.10  0.00  0.00  0.89  0.00  0.00  0.00  0.03  0.00
  HS02004807HS02004802    1.00   0.10  0.00  0.00  0.89  0.00  0.00  0.01  0.00  0.00
  HS02004817HS02004807    1.00   0.00  0.10  0.00  0.90  0.00  0.00  0.00  0.01  0.00
  HS02004817HS02004824    1.00   0.00  0.00  0.00  1.00  0.00  0.00  0.00  0.83  0.00
  HS02004824HS02004830    1.00   0.00  0.00  0.00  1.00  0.00  0.00  0.00  0.00  0.00
  HS02004830HS02004837    1.00   0.00  0.00  0.00  1.00  0.00  0.00  0.00  0.90  0.00
  HS02004837HS02004842    1.00   0.00  0.00  0.00  1.00  0.00  0.00  0.00  0.11  0.00
  HS02004842HS02004848    1.00   0.00  0.10  0.00  0.90  0.00  0.00  0.00  0.58  0.00
  HS02004848HS02004852    1.00   0.10  0.00  0.00  0.90  0.00  0.00  0.00  0.72  0.00
  HS02004852HS02004856    1.00   0.10  0.01  0.00  0.89  0.00  0.00  0.00  0.69  0.00
  HS02004856HS02004862    1.00   0.00  0.12  0.00  0.88  0.00  0.00  0.00  0.76  0.00
  HS02004862HS02004870    1.00   0.00  0.00  0.00  1.00  0.00  0.00  0.00  0.03  0.00
  HS02004870HS02004876    1.00   0.00  0.00  0.00  0.99  0.01  0.00  0.00  0.88  0.00
  HS02004876HS02004881    1.00   0.04  0.00  0.00  0.73  0.23  0.00  0.00  0.00  0.00
  HS02004881HS02006253    1.00   0.03  0.04  0.00  0.42  0.03  0.00  0.48  0.19  0.00
  HS02004901HS02004770    1.00   0.10  0.00  0.00  0.90  0.00  0.00  0.00  0.00  0.00
  WS02001211WS02001212    1.00   0.00  0.04  0.00  0.96  0.00  0.00  0.00  0.00  0.00
  WS02001212WS02001213    1.00   0.04  0.00  0.00  0.44  0.00  0.52  0.00  0.00  0.00
  WS02001213WS02003059    1.00   0.00  0.00  0.00  0.99  0.00  0.00  0.00  0.00  0.00
  WS02003059WS02003060    1.00   0.00  0.00  0.00  1.00  0.00  0.00  0.00  0.03  0.00
  WS02003060WS02003069    1.00   0.00  0.00  0.00  0.99  0.01  0.00  0.00  0.46  0.00
  WS02003066WSF200        1.00   0.08  0.00  0.00  0.00  0.92  0.00  0.00  0.67  0.00
  WS02003067WS02003066    1.00   0.07  0.00  0.00  0.92  0.00  0.00  0.00  0.00  0.00
  WS02003069WS02003072    1.00   0.00  0.00  0.00  1.00  0.00  0.00  0.00  0.68  0.00
  WS02003072WS02003073    1.00   0.00  0.00  0.00  0.00  0.00  0.00  1.00  0.00  0.00
  WS02004138WS02004139    1.00   0.00  0.01  0.00  0.96  0.01  0.00  0.03  0.98  0.00
  WS02004139WS02001211    1.00   0.00  0.00  0.00  0.99  0.00  0.00  0.00  0.00  0.00
  WS02004401WS02004402    1.00   0.04  0.00  0.00  0.95  0.00  0.00  0.00  0.00  0.00
  WS02004402WS02004403    1.00   0.05  0.00  0.00  0.95  0.00  0.00  0.00  0.00  0.00
  WS02004403WS02004404    1.00   0.00  0.05  0.00  0.95  0.00  0.00  0.00  0.00  0.00
  WS02004404WS02004405    1.00   0.00  0.00  0.00  1.00  0.00  0.00  0.00  0.02  0.00
  WS02004405WS02004406    1.00   0.00  0.00  0.00  1.00  0.00  0.00  0.00  0.00  0.00
  WS02004406WS02004407    1.00   0.00  0.06  0.00  0.94  0.00  0.00  0.00  0.00  0.00
  WS02004407WS02004409    1.00   0.06  0.00  0.00  0.94  0.00  0.00  0.00  0.85  0.00
  WS02004409WS02004410    1.00   0.06  0.00  0.00  0.94  0.00  0.00  0.00  0.00  0.00
  WS02004410WS02004411    1.00   0.06  0.00  0.00  0.94  0.00  0.00  0.00  0.00  0.00
  WS02004411WS02004412    1.00   0.06  0.00  0.00  0.94  0.00  0.00  0.00  0.00  0.00
  WS02004412WS02004413    1.00   0.06  0.00  0.00  0.94  0.00  0.00  0.00  0.01  0.00
  WS02004413WS02003067    1.00   0.06  0.01  0.00  0.00  0.00  0.93  0.00  0.00  0.00
  WS02006109WS02006110    1.00   0.00  0.01  0.00  0.96  0.00  0.03  0.00  0.00  0.00
  WS02006110WS02006113    1.00   0.01  0.03  0.00  0.96  0.00  0.00  0.00  0.00  0.00
  WS02006111WS02006112    1.00   0.04  0.00  0.00  0.96  0.00  0.00  0.00  0.76  0.00
  WS02006112WS02006115    1.00   0.04  0.00  0.00  0.95  0.00  0.00  0.00  0.00  0.00
  WS02006113WS02006111    1.00   0.04  0.00  0.00  0.29  0.67  0.00  0.00  0.08  0.00
  WS02006115WS02006116    1.00   0.04  0.00  0.00  0.95  0.00  0.00  0.01  0.00  0.00
  WS02006116WS02004401    1.00   0.04  0.00  0.00  0.96  0.00  0.00  0.00  0.00  0.00
  WS02006228WS02006109    1.00   0.00  0.00  0.00  1.00  0.00  0.00  0.00  0.00  0.00
  WS02006229WS02006228    1.00   0.00  0.00  0.00  0.99  0.00  0.00  0.01  0.00  0.00
  WS02006230WS02006229    1.00   0.00  0.00  0.00  0.97  0.00  0.00  0.03  0.03  0.00
  WS02006231WS02006230    1.00   0.00  0.00  0.00  0.47  0.00  0.53  0.00  0.00  0.00
  WS02006232WS02006231    1.00   0.00  0.00  0.00  0.99  0.00  0.01  0.00  0.00  0.00
  WS02006234WS02006232    1.00   0.00  0.00  0.00  1.00  0.00  0.00  0.00  0.11  0.00
  WS02006235WS02006234    1.00   0.00  0.00  0.00  0.86  0.00  0.13  0.00  0.00  0.00
[...]
  WS02006256WS02006235    1.00   0.00  0.00  0.00  0.98  0.02  0.00  0.00  0.01  0.00
  WS02006280WS02006229    1.00   0.11  0.00  0.00  0.22  0.07  0.00  0.60  0.01  0.00
  WS02006284WS02006280    1.00   0.11  0.00  0.00  0.15  0.02  0.00  0.73  0.00  0.00
  WS02006287WS02006284    1.00   0.09  0.03  0.00  0.47  0.41  0.00  0.00  0.66  0.00
  WSF200WS02003060        1.00   0.00  0.08  0.00  0.49  0.43  0.00  0.00  0.66  0.00
  YS02001580YS02001583    1.00   0.21  0.53  0.00  0.26  0.00  0.00  0.00  0.71  0.00
  YS02001583YS02001586    1.00   0.34  0.28  0.00  0.38  0.00  0.00  0.00  0.71  0.00
  YS02001586YS02001590    1.00   0.10  0.00  0.00  0.57  0.03  0.00  0.30  0.34  0.00
  YS02001590YS02001593    1.00   0.10  0.00  0.00  0.14  0.00  0.75  0.00  0.00  0.00
  YS02001593YS02001596    1.00   0.11  0.00  0.00  0.17  0.01  0.00  0.71  0.02  0.00
  YS02001596YS02001600    1.00   0.11  0.00  0.00  0.30  0.02  0.00  0.58  0.06  0.00
  YS02001600YS02001601    1.00   0.10  0.00  0.00  0.89  0.00  0.00  0.00  0.63  0.00
  YS02001601YS02001602    1.00   0.10  0.00  0.00  0.89  0.00  0.00  0.00  0.00  0.00
  YS02001602YS02001605    1.00   0.11  0.00  0.00  0.89  0.00  0.00  0.00  0.00  0.00
  YS02001605YS02001607    1.00   0.11  0.00  0.00  0.89  0.00  0.00  0.00  0.00  0.00
  YS02001607YS02001610    1.00   0.11  0.00  0.00  0.89  0.00  0.00  0.00  0.01  0.00
  YS02001610YS02001613    1.00   0.10  0.00  0.00  0.90  0.00  0.00  0.00  0.00  0.00
  YS02001613YS02001616    1.00   0.10  0.00  0.00  0.90  0.00  0.00  0.00  0.00  0.00
  YS02001616YS02001619    1.00   0.10  0.00  0.00  0.90  0.00  0.00  0.00  0.00  0.00
  YS02001619YS02001622    1.00   0.10  0.00  0.00  0.90  0.00  0.00  0.00  0.36  0.00
  YS02001622YS02001625    1.00   0.10  0.00  0.00  0.90  0.00  0.00  0.00  0.04  0.00
  YS02001625YS02001629    1.00   0.10  0.03  0.00  0.21  0.00  0.66  0.00  0.00  0.00
  YS02001629YS02163301    1.00   0.12  0.01  0.00  0.88  0.00  0.00  0.00  0.00  0.00
  YS02001633YS02163601    1.00   0.00  0.01  0.00  0.99  0.00  0.00  0.00  0.15  0.00
  YS02001641YS02001644    1.00   0.00  0.00  0.00  0.99  0.00  0.00  0.00  0.00  0.00
  YS02001644YS02001647    1.00   0.00  0.13  0.00  0.87  0.00  0.00  0.00  0.00  0.00
  YS02001647YS02001649    1.00   0.00  0.13  0.00  0.54  0.33  0.00  0.00  0.59  0.00
  YS02001649YS02001757    1.00   0.00  0.00  0.00  0.71  0.29  0.00  0.00  0.51  0.00
  YS02001652YS02001649    1.00   0.00  0.00  0.00  0.97  0.03  0.00  0.00  0.75  0.00
  YS02001655YS02001652    1.00   0.00  0.00  0.00  0.24  0.06  0.00  0.70  0.10  0.00
  YS02001658YS02001655    1.00   0.00  0.11  0.00  0.51  0.38  0.00  0.00  0.74  0.00
  YS02001661YS02001658    1.00   0.11  0.00  0.00  0.36  0.53  0.00  0.00  0.76  0.00
  YS02001664YS02001661    1.00   0.10  0.00  0.00  0.68  0.22  0.00  0.00  0.86  0.00
  YS02001745YS02001748    1.00   0.00  0.00  0.00  0.05  0.02  0.00  0.94  0.03  0.00
  YS02001748YS02001751    1.00   0.00  0.00  0.00  0.68  0.32  0.00  0.00  0.81  0.00
  YS02001751YS02001754    1.00   0.00  0.00  0.00  0.17  0.01  0.00  0.81  0.04  0.00
  YS02001754YS02001757    1.00   0.00  0.00  0.00  1.00  0.00  0.00  0.00  0.84  0.00
  YS02001757CaochengTiaoxuchi    1.00   0.00  0.00  0.00  0.93  0.07  0.00  0.00  0.78  0.00
  YS02001759YS02001757    1.00   0.00  0.00  0.00  1.00  0.00  0.00  0.00  0.65  0.00
  YS02001762YS02001759    1.00   0.00  0.00  0.00  1.00  0.00  0.00  0.00  0.04  0.00
  YS02001765YS02001762    1.00   0.00  0.00  0.00  1.00  0.00  0.00  0.00  0.73  0.00
  YS02001767YS02001765    1.00   0.00  0.00  0.00  1.00  0.00  0.00  0.00  0.00  0.00
  YS02001770YS02001767    1.00   0.00  0.00  0.00  1.00  0.00  0.00  0.00  0.00  0.00
  YS02001774YS02001770    1.00   0.00  0.10  0.00  0.71  0.00  0.18  0.00  0.03  0.00
  YS02001779YS02001774    1.00   0.00  0.00  0.00  1.00  0.00  0.00  0.00  0.80  0.00
  YS02001783YS02001784    1.00   0.00  0.14  0.00  0.86  0.00  0.00  0.00  0.58  0.00
  YS02001784YS02001785    1.00   0.00  0.00  0.00  1.00  0.00  0.00  0.00  0.17  0.00
  YS02001786YS02001788    1.00   0.00  0.00  0.00  0.63  0.37  0.00  0.00  0.00  0.00
  YS02001788YS02001790    1.00   0.00  0.00  0.00  0.17  0.83  0.00  0.00  0.84  0.00
  YS02001790YS02001791    1.00   0.00  0.00  0.00  0.02  0.98  0.00  0.00  0.17  0.00
  YS02001791YS02001793    1.00   0.00  0.00  0.00  0.00  1.00  0.00  0.00  0.00  0.00
  YS02001793JiankangQianchi    1.00   0.00  0.00  0.00  0.97  0.02  0.00  0.00  0.98  0.00
  YS02001882YS02001884    1.00   0.12  0.01  0.00  0.88  0.00  0.00  0.00  0.00  0.00
  YS02001884YS02001887    1.00   0.07  0.03  0.00  0.90  0.00  0.00  0.00  0.00  0.00
  YS02001887YS02001890    1.00   0.00  0.00  0.00  0.95  0.00  0.05  0.00  0.00  0.00
  YS02001890YS02001895    1.00   0.00  0.12  0.00  0.88  0.00  0.00  0.00  0.00  0.00
  YS02001895YS02001898    1.00   0.12  0.00  0.00  0.86  0.00  0.02  0.00  0.00  0.00
  YS02001898YS02001901    1.00   0.12  0.00  0.00  0.88  0.00  0.00  0.00  0.01  0.00
  YS02001901YS02001904    1.00   0.12  0.00  0.00  0.88  0.00  0.00  0.00  0.00  0.00
  YS02001904YS02001907    1.00   0.00  0.12  0.00  0.88  0.00  0.00  0.00  0.00  0.00
  YS02001907YS02006553    1.00   0.00  0.04  0.00  0.96  0.00  0.00  0.00  0.00  0.00
  YS02001910YS02001907    1.00   0.00  0.00  0.00  0.95  0.00  0.00  0.05  0.12  0.00
  YS02001915YS02001910    1.00   0.00  0.00  0.00  0.96  0.04  0.00  0.00  0.16  0.00
  YS02001918YS02001915    1.00   0.00  0.00  0.00  0.96  0.04  0.00  0.00  0.78  0.00
  YS02001920YS02001918    1.00   0.00  0.00  0.00  1.00  0.00  0.00  0.00  0.00  0.00
  YS02001923YS02001920    1.00   0.00  0.00  0.00  1.00  0.00  0.00  0.00  0.95  0.00
  YS02001926YS02001923    1.00   0.00  0.08  0.00  0.06  0.00  0.87  0.00  0.00  0.00
  YS02001929YS02001926    1.00   0.00  0.10  0.00  0.90  0.00  0.00  0.00  0.84  0.00
  YS02006553YS02006556    1.00   0.02  0.00  0.00  0.98  0.00  0.00  0.00  0.03  0.00
  YS02006556YS02006558    1.00   0.00  0.00  0.00  1.00  0.00  0.00  0.00  0.00  0.00
  YS02006558YS02006561    1.00   0.14  0.00  0.00  0.05  0.81  0.00  0.00  0.19  0.00
  YS02006561YS02001783    1.00   0.14  0.00  0.00  0.09  0.77  0.00  0.00  0.72  0.00
  YS02163301YS02001633    1.00   0.00  0.12  0.00  0.88  0.00  0.00  0.00  0.00  0.00
  YS02163601YS02164001    1.00   0.00  0.08  0.00  0.92  0.00  0.00  0.00  0.00  0.00
  YS02164001YS02001641    1.00   0.01  0.08  0.00  0.92  0.00  0.00  0.00  0.06  0.00
  YSB1154YSB6556          1.00   0.10  0.00  0.00  0.90  0.00  0.00  0.00  0.02  0.00
  YSB1171HS02004479       1.00   0.06  0.00  0.00  0.93  0.00  0.00  0.01  0.10  0.00
  YSB1174YSB1171          1.00   0.06  0.02  0.00  0.91  0.00  0.00  0.00  0.00  0.00
  YSB6556YSB1171          1.00   0.06  0.04  0.00  0.90  0.00  0.00  0.00  0.00  0.00
  
  
  *************************
  Conduit Surcharge Summary
  *************************
  
  ----------------------------------------------------------------------------
                                                           Hours        Hours 
                         --------- Hours Full --------   Above Full   Capacity
  Conduit                Both Ends  Upstream  Dnstream   Normal Flow   Limited
  ----------------------------------------------------------------------------
  HS02004478WS02006287        0.35      0.35      0.51      0.01         0.01
  HS02004479HS02004480        0.52      0.52      0.53      0.01         0.01
  HS02004480HS02004478        0.45      0.51      0.45      1.61         0.45
  HS02004770HS02004777        0.43      0.43      0.44      0.10         0.07
  HS02004777HS02004785        0.39      0.39      0.44      0.01         0.01
  HS02004785HS02004788        0.38      0.39      0.38      1.30         0.37
  HS02004788HS02004792        0.38      0.38      0.49      0.01         0.01
  HS02004792HS02004799        0.49      0.49      0.59      0.01         0.01
  HS02004799HS02004480        0.51      0.51      0.59      0.69         0.01
  HS02004802HS02004478        0.46      0.46      0.52      0.01         0.01
  HS02004807HS02004802        0.49      0.49      0.52      0.10         0.11
  HS02004817HS02004807        0.49      0.49      1.05      0.01         0.01
  HS02004817HS02004824        0.37      0.37      1.05      0.01         0.01
  HS02004824HS02004830        0.35      0.35      0.37      0.01         0.01
  HS02004830HS02004837        0.31      0.31      0.35      0.01         0.01
  HS02004837HS02004842        0.31      0.31      0.43      0.01         0.01
  HS02004842HS02004848        0.28      0.28      0.43      0.01         0.01
  HS02004848HS02004852        0.28      0.28      0.31      0.02         0.01
  HS02004852HS02004856        0.31      0.31      0.33      0.02         0.01
  HS02004856HS02004862        0.29      0.29      0.32      0.01         0.01
  HS02004862HS02004870        0.32      0.32      0.34      0.03         0.02
  HS02004870HS02004876        0.34      0.34      0.41      0.01         0.01
  HS02004876HS02004881        0.39      0.41      0.39      1.32         0.39
  HS02004881HS02006253        0.39      0.39      1.72      0.01         0.01
  HS02004901HS02004770        0.43      0.43      0.44      0.01         0.01
  WS02003072WS02003073        0.01      0.01      0.01      2.15         0.01
  WS02004401WS02004402        1.53      1.53      1.59      1.33         1.31
  WS02004402WS02004403        1.59      1.59      1.59      1.53         1.52
  WS02004403WS02004404        1.59      1.59      1.74      0.01         0.01
  WS02004404WS02004405        1.73      1.74      1.73      2.89         1.72
  WS02004405WS02004406        1.68      1.73      1.68      1.87         1.68
  WS02004406WS02004407        0.01      0.01      1.68      0.01         0.01
  WS02004407WS02004409        0.01      0.01      0.80      0.01         0.01
  WS02004409WS02004410        0.78      0.80      0.78      1.43         0.78
  WS02004410WS02004411        0.70      0.78      0.70      1.48         0.70
  WS02004411WS02004412        0.61      0.70      0.61      1.52         0.61
  WS02004412WS02004413        0.61      0.61      1.20      0.01         0.01
  WS02004413WS02003067        0.01      0.01      1.20      0.01         0.01
  WS02006109WS02006110        1.85      1.85      2.00      1.85         0.01
  WS02006110WS02006113        1.13      1.13      1.99      0.22         0.01
  WS02006111WS02006112        1.11      1.11      2.08      0.01         0.01
  WS02006112WS02006115        1.43      1.43      1.89      0.01         0.01
  WS02006113WS02006111        1.12      1.13      1.12      1.30         1.12
  WS02006115WS02006116        1.43      1.43      1.44      1.42         1.42
  WS02006116WS02004401        1.52      1.52      1.53      1.50         1.48
  WS02006228WS02006109        1.98      2.00      1.98      2.16         1.98
  WS02006229WS02006228        1.98      1.99      1.98      2.06         1.98
  WS02006230WS02006229        2.01      2.02      2.01      3.52         1.12
  WS02006231WS02006230        1.75      1.75      1.84      2.59         0.87
  WS02006232WS02006231        1.83      1.83      1.92      0.01         0.12
  WS02006234WS02006232        1.86      1.86      1.92      0.01         0.04
  WS02006235WS02006234        1.82      1.82      1.85      2.30         0.84
  WS02006238WS02006235        1.87      1.87      1.89      0.01         0.29
  WS02006239WS02006238        1.84      1.85      1.88      0.99         0.33
  WS02006240WS02006239        1.80      1.80      1.80      0.97         0.30
  WS02006242WS02006240        1.79      1.79      1.84      1.36         0.73
  WS02006243WS02006242        1.78      1.78      1.81      0.01         0.03
  WS02006245WS02006243        1.77      1.77      1.77      0.31         0.26
  WS02006247WS02006245        1.76      1.77      1.76      1.81         0.69
  WS02006248WS02006247        1.76      1.76      1.77      0.01         0.04
  WS02006249WS02006248        1.75      1.76      1.76      0.85         0.01
  WS02006251WS02006249        1.75      1.75      1.76      1.79         1.70
  WS02006252WS02006251        1.95      1.95      1.98      1.62         0.01
  WS02006253WS02006251        1.75      1.75      1.76      0.62         0.01
  WS02006256WS02006235        2.51      2.57      5.88      0.81         0.01
  WS02006280WS02006229        0.62      0.62      0.77      0.01         0.01
  WS02006284WS02006280        0.53      0.53      0.61      0.01         0.01
  WS02006287WS02006284        0.45      0.45      0.54      0.14         0.15
  YS02001580YS02001583        0.38      0.38      0.42      0.01         0.01
  YS02001583YS02001586        0.39      0.39      0.50      0.01         0.01
  YS02001586YS02001590        0.50      0.50      0.56      0.01         0.01
  YS02001590YS02001593        0.56      0.56      0.58      0.62         0.01
  YS02001593YS02001596        0.57      0.57      0.66      0.01         0.01
  YS02001596YS02001600        0.70      0.70      0.79      0.01         0.01
  YS02001600YS02001601        0.86      0.86      1.20      0.01         0.01
  YS02001601YS02001602        1.05      1.05      1.26      0.82         0.01
  YS02001602YS02001605        0.99      0.99      1.05      2.01         0.01
  YS02001605YS02001607        0.94      0.99      0.94      1.14         0.94
  YS02001607YS02001610        0.50      0.50      0.52      0.01         0.01
  YS02001610YS02001613        0.49      0.49      0.52      0.01         0.01
  YS02001613YS02001616        0.45      0.45      0.49      0.01         0.01
  YS02001616YS02001619        0.44      0.44      0.45      0.01         0.01
  YS02001619YS02001622        0.43      0.44      0.43      0.60         0.42
  YS02001622YS02001625        0.43      0.43      0.61      0.01         0.01
  YS02001625YS02001629        0.37      0.37      0.61      0.01         0.01
  YS02001629YS02163301        0.59      0.59      0.60      0.27         0.26
  YS02001633YS02163601        0.62      0.62      0.64      0.44         0.44
  YS02001641YS02001644        0.47      0.52      0.47      1.33         0.47
  YS02001644YS02001647        0.29      0.29      0.47      0.04         0.01
  YS02001647YS02001649        0.29      0.29      0.34      0.01         0.01
  YS02001649YS02001757        0.34      0.34      0.37      0.31         0.28
  YS02001652YS02001649        0.23      0.23      0.34      0.01         0.01
  YS02001655YS02001652        0.08      0.08      0.21      0.01         0.01
  YS02001658YS02001655        0.01      0.01      0.08      0.01         0.01
  YS02001661YS02001658        0.01      0.01      0.01      0.01         0.01
  YS02001748YS02001751        0.01      0.01      0.02      0.01         0.01
  YS02001751YS02001754        0.02      0.02      0.08      0.01         0.01
  YS02001754YS02001757        0.11      0.11      0.37      0.01         0.01
  YS02001757CaochengTiaoxuchi        0.21      0.37      1.37      0.29         0.11
  YS02001759YS02001757        0.29      0.29      0.37      0.01         0.01
  YS02001762YS02001759        0.27      0.27      0.29      0.01         0.02
  YS02001765YS02001762        0.24      0.24      0.27      0.01         0.01
  YS02001767YS02001765        0.22      0.22      0.24      0.01         0.02
  YS02001770YS02001767        0.22      0.22      0.22      0.38         0.20
  YS02001774YS02001770        0.20      0.20      0.26      0.01         0.01
  YS02001779YS02001774        0.10      0.10      0.26      0.01         0.01
  YS02001783YS02001784        0.33      0.35      0.33      0.46         0.33
  YS02001784YS02001785        0.24      0.33      0.24      0.65         0.24
  YS02001786YS02001788        0.01      0.24      0.01      0.54         0.01
  YS02001790YS02001791        0.01      0.01      0.01      0.31         0.01
  YS02001793JiankangQianchi        0.01      0.01      6.08      0.01         0.01
  YS02001882YS02001884        0.30      0.30      0.31      0.01         0.01
  YS02001884YS02001887        0.33      0.33      0.34      0.01         0.01
  YS02001887YS02001890        0.35      0.35      0.36      0.01         0.01
  YS02001890YS02001895        0.29      0.29      0.38      0.01         0.01
  YS02001895YS02001898        0.29      0.29      0.29      0.01         0.01
  YS02001898YS02001901        0.29      0.29      0.33      0.01         0.01
  YS02001901YS02001904        0.32      0.32      0.33      0.01         0.01
  YS02001904YS02001907        0.32      0.32      0.53      0.01         0.01
  YS02001907YS02006553        0.67      0.67      0.72      0.01         0.01
  YS02001910YS02001907        0.38      0.38      0.51      0.01         0.01
  YS02001915YS02001910        0.30      0.30      0.38      0.01         0.01
  YS02001918YS02001915        0.23      0.23      0.30      0.01         0.01
  YS02001920YS02001918        0.22      0.23      0.24      0.01         0.01
  YS02001923YS02001920        0.18      0.18      0.24      0.01         0.01
  YS02001926YS02001923        0.01      0.01      0.01      0.01         0.01
  YS02001929YS02001926        0.01      0.01      0.01      0.01         0.01
  YS02006553YS02006556        0.44      0.44      0.53      0.01         0.01
  YS02006556YS02006558        0.48      0.48      0.54      0.01         0.01
  YS02006558YS02006561        0.26      0.43      0.26      0.61         0.26
  YS02006561YS02001783        0.19      0.19      0.35      0.01         0.01
  YS02163301YS02001633        0.60      0.60      0.64      0.01         0.01
  YS02163601YS02164001        0.53      0.53      0.64      0.23         0.01
  YS02164001YS02001641        0.52      0.53      0.52      0.69         0.50
  YSB1154YSB6556              0.56      0.56      0.71      0.01         0.01
  YSB1171HS02004479           0.48      0.48      0.71      0.01         0.01
  YSB1174YSB1171              0.62      0.62      0.96      0.01         0.01
  YSB6556YSB1171              0.56      0.56      1.14      0.01         0.01
  
  
  ***************
  Pumping Summary
  ***************
  
  ---------------------------------------------------------------------------------------------------------
                                                  Min       Avg       Max     Total     Power    % Time Off
                        Percent   Number of      Flow      Flow      Flow    Volume     Usage    Pump Curve
  Pump                 Utilized   Start-Ups       LPS       LPS       LPS  10^6 ltr     Kw-hr    Low   High
  ---------------------------------------------------------------------------------------------------------
  CC-R1                   19.85          17      0.00    683.00    683.00     3.905     68.97    0.0   41.6
  CC-R2                   13.79          10      0.00    683.00    683.00     2.713     47.01    0.0   61.2
  CC-S1                   23.55          19      0.00    200.00    200.00     1.356      9.30    0.0    0.0
  CC-S2                   23.82          30      0.00    200.00    200.00     1.372      9.63    0.0    0.0
  JK-R1                    6.00           9      0.00   1000.00   1000.00     1.728     16.76    0.0    0.0
  JK-R2                    0.16           1      0.00   1000.00   1000.00     0.047      0.36    0.0    0.0
  JK-S                    16.75          45      0.00    300.00    300.00     1.447     23.14    0.0    0.0
  XR-1                    97.91           2      0.00     95.00     95.00     2.679      9.61    0.0    0.0
  XR-2                    93.94           2      0.00     95.00     95.00     2.570      8.77    0.0    0.0
  XR-3                     0.00           1      0.00     95.00     95.00     0.000      0.00    0.0    0.0
  XR-4                     0.00           1      0.00     95.00     95.00     0.000      0.00    0.0    0.0
  

  Analysis begun on:  Wed Jul 12 14:39:28 2023
  Analysis ended on:  Wed Jul 12 14:39:44 2023
  Total elapsed time: 00:00:16