
  OWA STORM WATER MANAGEMENT MODEL - VERSION v5.1.14 (OWA 2022-07-31)
  --------------------------------------------------------------

  WARNING 04: minimum elevation drop used for Conduit WS02004404WS02004405
  WARNING 03: negative offset ignored for Link YS02001904YS02001907
  
  *********************************************************
  NOTE: The summary statistics displayed in this report are
  based on results found at every computational time step,  
  not just on results from each reporting time step.
  *********************************************************
  
  ****************
  Analysis Options
  ****************
  Flow Units ............... LPS
  Process Models:
    Rainfall/Runoff ........ YES
    RDII ................... NO
    Snowmelt ............... NO
    Groundwater ............ NO
    Flow Routing ........... YES
    Ponding Allowed ........ NO
    Water Quality .......... NO
  Infiltration Method ...... HORTON
  Flow Routing Method ...... DYNWAVE
  Surcharge Method ......... EXTRAN
  Starting Date ............ 08/28/2015 08:00:00
  Ending Date .............. 08/28/2015 16:00:00
  Antecedent Dry Days ...... 8.0
  Report Time Step ......... 00:01:00
  Wet Time Step ............ 00:01:00
  Dry Time Step ............ 00:01:00
  Routing Time Step ........ 30.00 sec
  Variable Time Step ....... YES
  Maximum Trials ........... 8
  Number of Threads ........ 4
  Head Tolerance ........... 0.001500 m
  
  
  **************************        Volume         Depth
  Runoff Quantity Continuity     hectare-m            mm
  **************************     ---------       -------
  Total Precipitation ......         4.623       139.361
  Evaporation Loss .........         0.000         0.000
  Infiltration Loss ........         0.106         3.201
  Surface Runoff ...........         4.484       135.197
  Final Storage ............         0.033         0.997
  Continuity Error (%) .....        -0.024
  
  
  **************************        Volume        Volume
  Flow Routing Continuity        hectare-m      10^6 ltr
  **************************     ---------     ---------
  Dry Weather Inflow .......         0.000         0.000
  Wet Weather Inflow .......         4.484        44.841
  Groundwater Inflow .......         0.000         0.000
  RDII Inflow ..............         0.000         0.000
  External Inflow ..........         0.083         0.834
  External Outflow .........         2.590        25.902
  Flooding Loss ............         2.203        22.033
  Evaporation Loss .........         0.000         0.000
  Exfiltration Loss ........         0.000         0.000
  Initial Stored Volume ....         0.248         2.479
  Final Stored Volume ......         0.032         0.318
  Continuity Error (%) .....        -0.207
  
  
  *************************
  Highest Continuity Errors
  *************************
  Node WS02004406 (10.53%)
  Node WS02004413 (8.09%)
  Node WS02004405 (6.13%)
  Node WS02006112 (5.18%)
  Node YS02001583 (-4.77%)
  
  
  ***************************
  Time-Step Critical Elements
  ***************************
  Link 3 (97.49%)
  
  
  ********************************
  Highest Flow Instability Indexes
  ********************************
  Link YS02001882YS02001884 (11)
  Link YS02001790YS02001791 (11)
  Link YS02001884YS02001887 (11)
  Link YS02006558YS02006561 (11)
  Link YS02001580YS02001583 (8)
  
  
  *************************
  Routing Time Step Summary
  *************************
  Minimum Time Step           :     0.00 sec
  Average Time Step           :     1.72 sec
  Maximum Time Step           :     5.34 sec
  Percent in Steady State     :     0.00
  Average Iterations per Step :     2.62
  Percent Not Converging      :     6.59
  
  
  ***************************
  Subcatchment Runoff Summary
  ***************************
  
  ------------------------------------------------------------------------------------------------------------------------------
                            Total      Total      Total      Total     Imperv       Perv      Total       Total     Peak  Runoff
                           Precip      Runon       Evap      Infil     Runoff     Runoff     Runoff      Runoff   Runoff   Coeff
  Subcatchment                 mm         mm         mm         mm         mm         mm         mm    10^6 ltr      LPS
  ------------------------------------------------------------------------------------------------------------------------------
  sub60                    139.36       0.00       0.00       1.91     121.46      14.82     136.27        1.79  1210.07   0.978
  sub61                    139.36       0.00       0.00       2.78     114.56      20.92     135.48        2.49  1682.63   0.972
  sub62                    139.36       0.00       0.00       1.27     126.94       9.88     136.82        3.75  2393.15   0.982
  sub63                    139.36       0.00       0.00       5.13      97.99      35.30     133.29        3.03  1934.11   0.956
  sub64                    139.36       0.00       0.00       2.59     117.27      18.32     135.58        3.26  1974.80   0.973
  sub65                    139.36       0.00       0.00       2.24     120.01      15.88     135.88        3.74  2217.99   0.975
  sub66                    139.36       0.00       0.00       6.35      97.88      34.07     131.95        6.15  3035.17   0.947
  sub67                    139.36       0.00       0.00       1.22     126.99       9.93     136.92        2.55  1796.53   0.983
  sub68                    139.36       0.00       0.00       2.30     118.68      17.22     135.90        3.74  2451.12   0.975
  sub69                    139.36       0.00       0.00       2.08     118.36      18.82     137.18        5.08  2951.25   0.984
  sub70                    139.36       0.00       0.00       6.95      91.82      40.43     132.25        3.82  1709.70   0.949
  sub71                    139.36       0.00       0.00       1.31     126.90       9.84     136.74        3.58  2131.43   0.981
  sub72                    139.36       0.00       0.00       1.17     128.21       8.59     136.81        1.88  1050.20   0.982
  
  
  ******************
  Node Depth Summary
  ******************
  
  ---------------------------------------------------------------------------------
                                 Average  Maximum  Maximum  Time of Max    Reported
                                   Depth    Depth      HGL   Occurrence   Max Depth
  Node                 Type       Meters   Meters   Meters  days hr:min      Meters
  ---------------------------------------------------------------------------------
  WS02003060           JUNCTION     0.07     0.09     5.02     0  06:19        0.09
  WS02003066           JUNCTION     0.02     0.09     5.64     0  05:31        0.09
  WS02003067           JUNCTION     0.08     0.33     5.65     0  05:33        0.33
  WS02003069           JUNCTION     0.08     0.10     4.68     0  07:23        0.10
  WS02003072           JUNCTION     0.12     0.15     4.52     0  07:49        0.15
  WS02003073           JUNCTION     0.06     0.07     4.14     0  07:51        0.07
  WS02004401           JUNCTION     0.23     0.36     6.36     0  05:11        0.36
  WS02004402           JUNCTION     0.27     0.40     6.36     0  05:01        0.40
  WS02004403           JUNCTION     0.29     0.43     6.36     0  04:55        0.43
  WS02004404           JUNCTION     0.36     0.51     6.36     0  05:07        0.51
  WS02004405           JUNCTION     0.36     0.51     6.36     0  04:58        0.51
  WS02004406           JUNCTION     0.38     0.53     6.36     0  05:14        0.53
  WS02004407           JUNCTION     0.02     0.04     6.36     0  05:40        0.04
  WS02004409           JUNCTION     0.04     0.12     5.89     0  06:17        0.12
  WS02004410           JUNCTION     0.05     0.16     5.88     0  05:37        0.16
  WS02004411           JUNCTION     0.06     0.20     5.88     0  05:15        0.20
  WS02004412           JUNCTION     0.07     0.24     5.88     0  05:03        0.24
  WS02004413           JUNCTION     0.12     0.41     5.88     0  05:19        0.41
  WS02006109           JUNCTION     0.32     0.34     6.96     0  04:26        0.34
  WS02006110           JUNCTION     0.35     0.37     6.96     0  04:59        0.37
  WS02006111           JUNCTION     0.05     0.05     6.76     0  05:10        0.05
  WS02006112           JUNCTION     0.37     0.48     6.36     0  06:31        0.48
  WS02006113           JUNCTION     0.06     0.06     6.96     0  05:09        0.06
  WS02006115           JUNCTION     0.14     0.22     6.36     0  06:04        0.22
  WS02006116           JUNCTION     0.20     0.32     6.36     0  05:37        0.32
  WS02006228           JUNCTION     0.29     0.31     6.96     0  03:48        0.31
  WS02006229           JUNCTION     0.25     0.27     6.96     0  03:27        0.27
  WS02006230           JUNCTION     0.21     0.22     6.96     0  04:00        0.22
  WS02006231           JUNCTION     0.00     0.00     7.12     0  00:00        0.00
  WS02006232           JUNCTION     0.00     0.00     7.04     0  00:00        0.00
  WS02006234           JUNCTION     0.00     0.00     7.16     0  00:00        0.00
  WS02006235           JUNCTION     0.00     0.00     7.16     0  00:00        0.00
  WS02006238           JUNCTION     0.00     0.00     7.14     0  00:00        0.00
  WS02006239           JUNCTION     0.00     0.00     7.21     0  00:00        0.00
  WS02006240           JUNCTION     0.00     0.00     7.29     0  00:00        0.00
  WS02006242           JUNCTION     0.00     0.00     7.27     0  00:00        0.00
  WS02006243           JUNCTION     0.00     0.00     7.42     0  00:00        0.00
  WS02006245           JUNCTION     0.00     0.00     7.48     0  00:00        0.00
  WS02006247           JUNCTION     0.00     0.00     7.50     0  00:00        0.00
  WS02006248           JUNCTION     0.00     0.00     7.59     0  00:00        0.00
  WS02006249           JUNCTION     0.00     0.00     7.60     0  00:00        0.00
  WS02006251           JUNCTION     0.00     0.00     7.67     0  00:00        0.00
  WS02006252           JUNCTION     0.00     0.00     8.24     0  00:00        0.00
  WS02006256           JUNCTION     0.00     0.00     6.93     0  00:00        0.00
  WSF200               JUNCTION     0.01     0.04     5.28     0  05:43        0.04
  YS02001580           JUNCTION     0.28     1.05     9.59     0  01:34        0.77
  YS02001583           JUNCTION     0.32     1.14     9.64     0  01:34        0.82
  YS02001586           JUNCTION     0.48     1.13     9.30     0  01:34        1.13
  YS02001590           JUNCTION     0.62     1.40     9.26     0  01:34        1.37
  YS02001593           JUNCTION     0.55     1.42     9.29     0  01:34        1.42
  YS02001596           JUNCTION     0.73     1.80     9.22     0  01:34        1.80
  YS02001600           JUNCTION     0.85     1.87     9.00     0  01:34        1.87
  YS02001601           JUNCTION     1.04     2.06     8.90     0  01:33        2.06
  YS02001602           JUNCTION     0.91     1.87     8.77     0  01:33        1.87
  YS02001605           JUNCTION     0.84     1.78     8.68     0  01:33        1.77
  YS02001607           JUNCTION     0.77     1.68     8.52     0  01:34        1.64
  YS02001610           JUNCTION     0.81     1.68     8.48     0  01:33        1.68
  YS02001613           JUNCTION     0.77     1.69     8.54     0  01:34        1.66
  YS02001616           JUNCTION     0.70     1.61     8.52     0  01:34        1.61
  YS02001619           JUNCTION     0.68     1.61     8.54     0  01:34        1.61
  YS02001622           JUNCTION     0.67     1.59     8.49     0  02:07        1.58
  YS02001625           JUNCTION     0.90     1.78     8.38     0  01:38        1.78
  YS02001629           JUNCTION     0.83     1.85     8.40     0  01:40        1.85
  YS02001633           JUNCTION     0.90     2.08     8.53     0  01:46        2.08
  YS02001641           JUNCTION     0.83     1.97     8.41     0  01:48        1.96
  YS02001644           JUNCTION     0.81     1.92     8.35     0  01:40        1.92
  YS02001647           JUNCTION     0.58     1.80     8.41     0  01:41        1.79
  YS02001649           JUNCTION     0.64     2.05     8.44     0  01:41        2.05
  YS02001652           JUNCTION     0.51     2.15     8.74     0  01:40        2.07
  YS02001655           JUNCTION     0.39     2.20     9.05     0  01:40        2.07
  YS02001658           JUNCTION     0.31     2.25     9.39     0  01:41        2.04
  YS02001661           JUNCTION     0.31     2.05     9.45     0  01:50        2.05
  YS02001664           JUNCTION     0.17     1.81     9.73     0  01:50        1.81
  YS02001745           JUNCTION     0.18     1.24     8.76     0  01:49        1.24
  YS02001748           JUNCTION     0.27     2.07     9.15     0  01:41        1.59
  YS02001751           JUNCTION     0.32     2.01     8.88     0  01:41        1.71
  YS02001754           JUNCTION     0.42     2.01     8.62     0  01:41        1.90
  YS02001757           JUNCTION     0.64     2.16     8.43     0  01:48        2.16
  YS02001759           JUNCTION     0.58     2.20     8.56     0  01:48        2.20
  YS02001762           JUNCTION     0.56     2.14     8.54     0  01:48        2.14
  YS02001765           JUNCTION     0.54     2.06     8.51     0  01:48        2.06
  YS02001767           JUNCTION     0.53     2.00     8.49     0  01:47        2.00
  YS02001770           JUNCTION     0.54     1.95     8.44     0  01:39        1.95
  YS02001774           JUNCTION     0.61     2.00     8.42     0  01:48        2.00
  YS02001779           JUNCTION     0.41     1.68     8.37     0  01:39        1.68
  YS02001783           JUNCTION     0.49     1.41     7.55     0  01:38        1.31
  YS02001784           JUNCTION     0.47     1.22     7.29     0  01:38        1.18
  YS02001786           JUNCTION     0.38     0.94     6.97     0  01:38        0.91
  YS02001788           JUNCTION     0.28     0.64     6.61     0  01:49        0.63
  YS02001790           JUNCTION     0.32     0.72     6.37     0  01:55        0.71
  YS02001791           JUNCTION     0.20     0.45     5.92     0  01:55        0.43
  YS02001793           JUNCTION     0.10     0.22     5.06     0  01:55        0.22
  YS02001882           JUNCTION     0.62     1.80     8.52     0  01:51        1.78
  YS02001884           JUNCTION     0.71     1.89     8.51     0  01:51        1.89
  YS02001887           JUNCTION     0.78     1.97     8.51     0  01:48        1.97
  YS02001890           JUNCTION     0.80     1.81     8.32     0  01:38        1.81
  YS02001895           JUNCTION     0.58     1.57     8.31     0  02:07        1.56
  YS02001898           JUNCTION     0.59     1.57     8.30     0  02:07        1.56
  YS02001901           JUNCTION     0.69     1.68     8.29     0  02:07        1.67
  YS02001904           JUNCTION     0.67     1.64     8.27     0  01:48        1.64
  YS02001907           JUNCTION     0.97     1.96     8.25     0  01:38        1.96
  YS02001910           JUNCTION     0.81     2.01     8.52     0  01:47        2.01
  YS02001915           JUNCTION     0.65     2.00     8.72     0  01:46        2.00
  YS02001918           JUNCTION     0.45     1.81     8.88     0  01:39        1.81
  YS02001920           JUNCTION     0.52     2.14     9.15     0  01:39        2.00
  YS02001923           JUNCTION     0.38     2.03     9.29     0  01:39        1.87
  YS02001926           JUNCTION     0.37     1.90     9.35     0  01:39        1.84
  YS02001929           JUNCTION     0.26     1.78     9.47     0  01:39        1.78
  YS02006553           JUNCTION     0.97     2.06     8.34     0  01:50        2.06
  YS02006556           JUNCTION     0.95     2.15     8.46     0  01:50        2.15
  YS02006558           JUNCTION     0.99     2.27     8.54     0  01:50        2.27
  YS02006561           JUNCTION     0.32     1.16     7.82     0  01:38        1.00
  YS02163301           JUNCTION     0.85     1.95     8.47     0  01:48        1.95
  YS02163601           JUNCTION     0.91     2.08     8.48     0  01:40        2.07
  YS02164001           JUNCTION     0.83     2.00     8.46     0  01:40        1.97
  CC-1                 OUTFALL      0.11     0.73     0.73     0  00:00        0.38
  CC-2                 OUTFALL      0.11     0.73     0.73     0  00:00        0.38
  JK-1                 OUTFALL      0.10     1.00     1.00     0  00:00        0.20
  JK-2                 OUTFALL      0.10     1.00     1.00     0  00:00        0.20
  WSC                  OUTFALL      0.06     0.07     0.74     0  07:51        0.07
  CC-storage           STORAGE      0.11     0.80     6.30     0  00:00        0.38
  JK-storage           STORAGE      0.10     3.00     3.80     0  00:00        0.20
  
  
  *******************
  Node Inflow Summary
  *******************
  
  -------------------------------------------------------------------------------------------------
                                  Maximum  Maximum                  Lateral       Total        Flow
                                  Lateral    Total  Time of Max      Inflow      Inflow     Balance
                                   Inflow   Inflow   Occurrence      Volume      Volume       Error
  Node                 Type           LPS      LPS  days hr:min    10^6 ltr    10^6 ltr     Percent
  -------------------------------------------------------------------------------------------------
  WS02003060           JUNCTION     16.53    26.81     0  05:43       0.476       0.608       0.313
  WS02003066           JUNCTION      0.00    10.28     0  05:18           0       0.134       0.818
  WS02003067           JUNCTION      0.00    10.28     0  05:21           0       0.138       2.957
  WS02003069           JUNCTION      0.32    27.13     0  06:19     0.00922       0.616       0.534
  WS02003072           JUNCTION      0.00    27.13     0  07:23           0       0.612       0.981
  WS02003073           JUNCTION      1.82    28.95     0  07:49      0.0524       0.659       0.713
  WS02004401           JUNCTION      0.00    10.34     0  01:37           0       0.238       4.243
  WS02004402           JUNCTION      0.00    10.30     0  04:38           0       0.228       4.557
  WS02004403           JUNCTION      0.00    10.49     0  01:25           0       0.218       4.625
  WS02004404           JUNCTION      0.00    10.34     0  04:26           0       0.209       4.002
  WS02004405           JUNCTION      0.00    10.34     0  04:30           0       0.201       6.531
  WS02004406           JUNCTION      0.00    10.30     0  04:42           0       0.188      11.768
  WS02004407           JUNCTION      0.00    10.28     0  05:19           0       0.168       0.555
  WS02004409           JUNCTION      0.00    10.28     0  05:40           0       0.168       1.276
  WS02004410           JUNCTION      0.00    10.28     0  05:14           0       0.165       2.295
  WS02004411           JUNCTION      0.00    10.30     0  04:50           0       0.162       3.155
  WS02004412           JUNCTION      0.00    10.38     0  04:41           0       0.157       4.549
  WS02004413           JUNCTION      0.00    10.50     0  04:38           0        0.15       8.797
  WS02006109           JUNCTION      0.00    10.28     0  03:01           0       0.284       3.381
  WS02006110           JUNCTION      0.00    10.28     0  03:51           0       0.275       3.024
  WS02006111           JUNCTION      0.00    10.28     0  05:08           0       0.266       0.192
  WS02006112           JUNCTION      0.00    10.28     0  05:07           0       0.265       5.464
  WS02006113           JUNCTION      0.00    10.28     0  05:08           0       0.267       0.411
  WS02006115           JUNCTION      0.00    10.58     0  02:07           0       0.251       2.627
  WS02006116           JUNCTION      0.00    10.81     0  02:07           0       0.245       3.020
  WS02006228           JUNCTION      0.00    10.31     0  00:09           0        0.29       2.095
  WS02006229           JUNCTION      0.00    10.49     0  00:19           0       0.293       1.037
  WS02006230           JUNCTION     10.28    10.28     0  00:00       0.296       0.296       0.979
  WS02006231           JUNCTION      0.00     0.00     0  00:00           0           0       0.000 ltr
  WS02006232           JUNCTION      0.00     0.00     0  00:00           0           0       0.000 ltr
  WS02006234           JUNCTION      0.00     0.00     0  00:00           0           0       0.000 ltr
  WS02006235           JUNCTION      0.00     0.00     0  00:00           0           0       0.000 ltr
  WS02006238           JUNCTION      0.00     0.00     0  00:00           0           0       0.000 ltr
  WS02006239           JUNCTION      0.00     0.00     0  00:00           0           0       0.000 ltr
  WS02006240           JUNCTION      0.00     0.00     0  00:00           0           0       0.000 ltr
  WS02006242           JUNCTION      0.00     0.00     0  00:00           0           0       0.000 ltr
  WS02006243           JUNCTION      0.00     0.00     0  00:00           0           0       0.000 ltr
  WS02006245           JUNCTION      0.00     0.00     0  00:00           0           0       0.000 ltr
  WS02006247           JUNCTION      0.00     0.00     0  00:00           0           0       0.000 ltr
  WS02006248           JUNCTION      0.00     0.00     0  00:00           0           0       0.000 ltr
  WS02006249           JUNCTION      0.00     0.00     0  00:00           0           0       0.000 ltr
  WS02006251           JUNCTION      0.00     0.00     0  00:00           0           0       0.000 ltr
  WS02006252           JUNCTION      0.00     0.00     0  00:00           0           0       0.000 ltr
  WS02006256           JUNCTION      0.00     0.00     0  00:00           0           0       0.000 ltr
  WSF200               JUNCTION      0.00    10.28     0  05:32           0       0.133       0.298
  YS02001580           JUNCTION      0.00    87.06     0  01:34           0     0.00399      -1.410
  YS02001583           JUNCTION      0.00   143.51     0  01:34           0      0.0153      -4.551
  YS02001586           JUNCTION   1709.70  1710.01     0  01:52        3.82        3.83       0.029
  YS02001590           JUNCTION      0.00   317.73     0  01:41           0        1.98      -0.035
  YS02001593           JUNCTION      0.00   317.80     0  01:41           0        1.98       0.001
  YS02001596           JUNCTION      0.00   317.77     0  01:41           0        1.98      -0.008
  YS02001600           JUNCTION      0.00   317.80     0  01:41           0        1.98       0.010
  YS02001601           JUNCTION   2951.25  3268.76     0  01:51        5.08        7.05       0.014
  YS02001602           JUNCTION      0.00   513.16     0  02:47           0         3.1       0.016
  YS02001605           JUNCTION      0.00   513.20     0  02:47           0        2.91       0.020
  YS02001607           JUNCTION      0.00   513.42     0  01:33           0        2.91       0.060
  YS02001610           JUNCTION      0.00   952.61     0  01:52           0        3.94       0.057
  YS02001613           JUNCTION      0.00   616.62     0  01:52           0        3.04       0.049
  YS02001616           JUNCTION      0.00   616.44     0  01:52           0        3.05       0.009
  YS02001619           JUNCTION   3035.17  3035.17     0  01:52        6.15        8.16      -0.005
  YS02001622           JUNCTION      0.00  1053.24     0  02:04           0        6.27      -0.005
  YS02001625           JUNCTION      0.00  1505.02     0  02:03           0        6.91       0.129
  YS02001629           JUNCTION      0.00  1138.18     0  01:53           0        5.32       0.005
  YS02001633           JUNCTION   2217.99  2217.99     0  01:51        3.74        7.95       0.039
  YS02001641           JUNCTION      0.00  1374.35     0  01:38           0        6.82       0.039
  YS02001644           JUNCTION   1974.80  3715.27     0  01:51        3.26        10.4       0.028
  YS02001647           JUNCTION      0.00  1778.97     0  01:38           0        7.96      -0.001
  YS02001649           JUNCTION      0.00  2057.29     0  01:37           0        10.7       0.001
  YS02001652           JUNCTION      0.00  1946.80     0  01:50           0        3.03      -0.059
  YS02001655           JUNCTION      0.00  1944.48     0  01:50           0        3.03       0.005
  YS02001658           JUNCTION      0.00  1941.17     0  01:50           0        3.03      -0.010
  YS02001661           JUNCTION      0.00  1937.13     0  01:50           0        3.03      -0.002
  YS02001664           JUNCTION   1934.11  1934.11     0  01:50        3.03        3.03      -0.006
  YS02001745           JUNCTION   1210.07  1210.07     0  01:50        1.79        1.79       0.037
  YS02001748           JUNCTION      0.00  1210.17     0  01:50           0        1.79      -0.072
  YS02001751           JUNCTION      0.00  1210.32     0  01:50           0        1.79       0.033
  YS02001754           JUNCTION      0.00  1210.78     0  01:50           0         1.8      -0.080
  YS02001757           JUNCTION      0.00  3461.74     0  01:49           0        16.7      -0.007
  YS02001759           JUNCTION   1682.63  1682.63     0  01:50        2.49        4.68      -0.011
  YS02001762           JUNCTION      0.00   784.86     0  02:06           0        2.27      -0.008
  YS02001765           JUNCTION      0.00   784.87     0  02:06           0        2.27      -0.003
  YS02001767           JUNCTION      0.00   784.86     0  02:06           0        2.27      -0.018
  YS02001770           JUNCTION   2393.15  2711.61     0  01:50        3.75        3.86      -0.021
  YS02001774           JUNCTION      0.00   851.44     0  01:52           0       0.951       0.121
  YS02001779           JUNCTION      0.00   851.35     0  01:52           0       0.907      -0.069
  YS02001783           JUNCTION      0.00  1218.35     0  01:49           0        6.01      -0.004
  YS02001784           JUNCTION      0.00  1218.55     0  01:49           0        6.01      -0.002
  YS02001786           JUNCTION      0.00  1218.71     0  01:50           0        6.01       0.003
  YS02001788           JUNCTION      0.00  1218.99     0  01:49           0        6.01       0.001
  YS02001790           JUNCTION      0.00  1219.43     0  01:49           0        6.01       0.053
  YS02001791           JUNCTION      0.00  1288.13     0  01:55           0        6.01      -0.049
  YS02001793           JUNCTION      0.00  1255.36     0  01:55           0        6.01       0.003
  YS02001882           JUNCTION      0.00    32.88     0  01:35           0      0.0134       1.730
  YS02001884           JUNCTION      0.00    81.21     0  01:35           0      0.0501       3.541
  YS02001887           JUNCTION   1796.53  1797.31     0  01:49        2.55        2.58       0.144
  YS02001890           JUNCTION      0.00  1797.64     0  01:49           0        2.54       0.160
  YS02001895           JUNCTION      0.00   517.04     0  01:52           0         1.8       0.093
  YS02001898           JUNCTION      0.00   517.05     0  01:52           0         1.8      -0.062
  YS02001901           JUNCTION      0.00   517.16     0  01:51           0         1.8       0.134
  YS02001904           JUNCTION      0.00   517.21     0  01:51           0        1.81       0.111
  YS02001907           JUNCTION      0.00  3748.16     0  01:50           0        7.33       0.225
  YS02001910           JUNCTION      0.00  1992.45     0  01:59           0        4.95       0.122
  YS02001915           JUNCTION   2131.43  3181.93     0  01:51        3.58        5.49       0.004
  YS02001918           JUNCTION      0.00  1050.76     0  01:51           0        1.94      -0.022
  YS02001920           JUNCTION      0.00  1050.39     0  01:51           0        1.92       0.015
  YS02001923           JUNCTION      0.00  1050.31     0  01:51           0        1.91      -0.039
  YS02001926           JUNCTION      0.00  1050.33     0  01:51           0        1.89      -0.010
  YS02001929           JUNCTION   1050.20  1050.20     0  01:51        1.88        1.88      -0.031
  YS02006553           JUNCTION      0.00  1238.60     0  01:50           0        3.48       0.311
  YS02006556           JUNCTION      0.00  1235.79     0  01:50           0        3.49       0.208
  YS02006558           JUNCTION   2451.12  2451.12     0  01:50        3.74        6.63       0.051
  YS02006561           JUNCTION      0.00  1218.35     0  01:49           0        6.01      -0.010
  YS02163301           JUNCTION      0.00  1138.18     0  01:53           0        5.32       0.026
  YS02163601           JUNCTION      0.00  1374.76     0  01:38           0        6.81       0.073
  YS02164001           JUNCTION      0.00  1375.01     0  01:38           0        6.81       0.031
  CC-1                 OUTFALL       0.00 16161.72     0  00:00           0         9.3       0.000
  CC-2                 OUTFALL       0.00 17045.67     0  00:00           0        9.68       0.000
  JK-1                 OUTFALL       0.00  8590.66     0  00:00           0        3.11       0.000
  JK-2                 OUTFALL       0.00  8788.77     0  00:00           0        3.16       0.000
  WSC                  OUTFALL       0.00    28.95     0  07:51           0       0.654       0.000
  CC-storage           STORAGE       0.00  3461.76     0  01:49           0        18.9      -0.317
  JK-storage           STORAGE       0.00  1290.02     0  01:55           0        6.16      -1.657
  
  
  **********************
  Node Surcharge Summary
  **********************
  
  Surcharging occurs when water rises above the top of the highest conduit.
  ---------------------------------------------------------------------
                                               Max. Height   Min. Depth
                                   Hours       Above Crown    Below Rim
  Node                 Type      Surcharged         Meters       Meters
  ---------------------------------------------------------------------
  YS02001580           JUNCTION        1.22          0.450        0.000
  YS02001583           JUNCTION        1.22          0.500        0.000
  YS02001586           JUNCTION        1.35          0.510        0.000
  YS02001590           JUNCTION        1.46          0.750        0.000
  YS02001593           JUNCTION        1.47          0.804        0.036
  YS02001596           JUNCTION        1.57          1.070        0.000
  YS02001600           JUNCTION        1.68          1.190        0.000
  YS02001601           JUNCTION        1.93          1.440        0.000
  YS02001602           JUNCTION        1.84          1.270        0.000
  YS02001605           JUNCTION        1.81          1.180        0.000
  YS02001607           JUNCTION        1.36          0.675        0.005
  YS02001610           JUNCTION        1.40          0.680        0.000
  YS02001613           JUNCTION        1.34          0.695        0.005
  YS02001616           JUNCTION        1.27          0.610        0.000
  YS02001619           JUNCTION        1.25          0.610        0.000
  YS02001622           JUNCTION        1.24          0.585        0.035
  YS02001625           JUNCTION        1.52          0.780        0.000
  YS02001629           JUNCTION        1.05          0.470        0.000
  YS02001633           JUNCTION        1.52          1.060        0.000
  YS02001641           JUNCTION        1.36          0.970        0.130
  YS02001644           JUNCTION        1.25          0.920        0.000
  YS02001647           JUNCTION        0.81          0.800        0.100
  YS02001649           JUNCTION        0.86          1.050        0.000
  YS02001652           JUNCTION        0.70          1.115        0.015
  YS02001655           JUNCTION        0.59          1.200        0.000
  YS02001658           JUNCTION        0.47          1.248        0.052
  YS02001661           JUNCTION        0.27          0.976        0.414
  YS02001664           JUNCTION        0.12          0.808        0.502
  YS02001745           JUNCTION        0.10          0.240        1.110
  YS02001748           JUNCTION        0.37          0.994        0.196
  YS02001751           JUNCTION        0.50          1.006        0.194
  YS02001754           JUNCTION        0.59          0.960        0.190
  YS02001757           JUNCTION        0.83          1.164        0.046
  YS02001759           JUNCTION        0.77          1.200        0.010
  YS02001762           JUNCTION        0.74          1.135        0.015
  YS02001765           JUNCTION        0.72          1.064        0.036
  YS02001767           JUNCTION        0.70          0.999        0.031
  YS02001770           JUNCTION        0.69          0.920        0.000
  YS02001774           JUNCTION        0.76          1.002        0.048
  YS02001779           JUNCTION        0.62          0.680        0.000
  YS02001783           JUNCTION        1.03          0.606        0.994
  YS02001784           JUNCTION        0.99          0.425        1.065
  YS02001786           JUNCTION        0.83          0.138        1.292
  YS02001882           JUNCTION        0.94          0.805        0.025
  YS02001884           JUNCTION        0.96          0.832        0.038
  YS02001887           JUNCTION        1.01          0.922        0.028
  YS02001890           JUNCTION        1.03          0.760        0.000
  YS02001895           JUNCTION        0.93          0.566        0.184
  YS02001898           JUNCTION        0.91          0.535        0.205
  YS02001901           JUNCTION        0.99          0.680        0.190
  YS02001904           JUNCTION        0.98          0.638        0.212
  YS02001907           JUNCTION        1.34          0.950        0.000
  YS02001910           JUNCTION        1.07          1.014        0.086
  YS02001915           JUNCTION        0.94          1.000        0.000
  YS02001918           JUNCTION        0.82          0.810        0.000
  YS02001920           JUNCTION        0.84          1.140        0.000
  YS02001923           JUNCTION        0.39          0.820        0.000
  YS02001926           JUNCTION        0.43          0.900        0.000
  YS02001929           JUNCTION        0.26          0.780        0.000
  YS02006553           JUNCTION        1.38          1.056        0.134
  YS02006556           JUNCTION        1.19          1.111        0.239
  YS02006558           JUNCTION        1.18          1.175        0.225
  YS02006561           JUNCTION        0.78          0.356        0.794
  YS02163301           JUNCTION        1.50          0.954        0.076
  YS02163601           JUNCTION        1.55          1.080        0.000
  YS02164001           JUNCTION        1.39          1.000        0.100
  
  
  *********************
  Node Flooding Summary
  *********************
  
  Flooding refers to all water that overflows a node, whether it ponds or not.
  --------------------------------------------------------------------------
                                                             Total   Maximum
                                 Maximum   Time of Max       Flood    Ponded
                        Hours       Rate    Occurrence      Volume     Depth
  Node                 Flooded       LPS   days hr:min    10^6 ltr    Meters
  --------------------------------------------------------------------------
  YS02001580              0.01     67.95      0  01:34       0.000     0.000
  YS02001583              0.01     82.19      0  01:34       0.000     0.000
  YS02001586              1.03   1392.31      0  01:52       1.845     0.000
  YS02001590              0.01      5.03      0  01:34       0.000     0.000
  YS02001596              0.01      0.15      0  01:34       0.000     0.000
  YS02001600              0.01      1.29      0  01:34       0.000     0.000
  YS02001601              1.23   2870.95      0  01:51       3.956     0.000
  YS02001602              0.89     61.87      0  01:44       0.189     0.000
  YS02001605              0.01      4.92      0  01:34       0.000     0.000
  YS02001610              0.83    952.49      0  01:52       1.932     0.000
  YS02001616              0.02     17.41      0  01:34       0.000     0.000
  YS02001619              0.33   1365.73      0  01:52       0.851     0.000
  YS02001625              0.73   1505.02      0  02:03       2.681     0.000
  YS02001629              0.38    688.11      0  01:50       0.478     0.000
  YS02001633              0.08    177.18      0  01:51       0.032     0.000
  YS02001644              0.44   3715.25      0  01:51       2.739     0.000
  YS02001649              0.07    298.34      0  01:49       0.035     0.000
  YS02001655              0.01    232.92      0  01:40       0.000     0.000
  YS02001770              0.22   1860.81      0  01:50       0.732     0.000
  YS02001779              0.41    851.25      0  01:52       0.888     0.000
  YS02001890              0.43   1280.77      0  01:49       0.735     0.000
  YS02001907              0.74   3747.92      0  01:50       4.432     0.000
  YS02001915              0.21   1189.47      0  01:51       0.504     0.000
  YS02001918              0.01     88.86      0  01:39       0.001     0.000
  YS02001920              0.01     13.63      0  01:39       0.000     0.000
  YS02001923              0.01     89.02      0  01:39       0.000     0.000
  YS02001926              0.01    306.14      0  01:39       0.001     0.000
  YS02001929              0.01    292.46      0  01:39       0.001     0.000
  YS02163601              0.01      3.96      0  01:40       0.000     0.000
  
  
  **********************
  Storage Volume Summary
  **********************
  
  --------------------------------------------------------------------------------------------------
                         Average     Avg  Evap Exfil       Maximum     Max    Time of Max    Maximum
                          Volume    Pcnt  Pcnt  Pcnt        Volume    Pcnt     Occurrence    Outflow
  Storage Unit           1000 m3    Full  Loss  Loss       1000 m3    Full    days hr:min        LPS
  --------------------------------------------------------------------------------------------------
  CC-storage               0.305       5     0     0         2.229      35       0  00:00   32996.09
  JK-storage               0.005       2     0     0         0.151      52       0  00:00   17379.43
  
  
  ***********************
  Outfall Loading Summary
  ***********************
  
  -----------------------------------------------------------
                         Flow       Avg       Max       Total
                         Freq      Flow      Flow      Volume
  Outfall Node           Pcnt       LPS       LPS    10^6 ltr
  -----------------------------------------------------------
  CC-1                 100.00    724.99  16161.72       9.304
  CC-2                 100.00    754.38  17045.67       9.677
  JK-1                  94.06    256.23   8590.66       3.106
  JK-2                  94.09    260.63   8788.77       3.160
  WSC                   99.98     20.05     28.95       0.654
  -----------------------------------------------------------
  System                97.63   2016.28     28.95      25.902
  
  
  ********************
  Link Flow Summary
  ********************
  
  -----------------------------------------------------------------------------
                                 Maximum  Time of Max   Maximum    Max/    Max/
                                  |Flow|   Occurrence   |Veloc|    Full    Full
  Link                 Type          LPS  days hr:min     m/sec    Flow   Depth
  -----------------------------------------------------------------------------
  1                    CONDUIT     28.95     0  07:51      1.17    0.01    0.07
  WS02003060WS02003069 CONDUIT     26.81     0  06:19      0.77    0.01    0.08
  WS02003066WSF200     CONDUIT     10.28     0  05:32      0.89    0.00    0.03
  WS02003067WS02003066 CONDUIT     10.28     0  05:18      0.08    0.00    0.17
  WS02003069WS02003072 CONDUIT     27.13     0  07:23      0.62    0.01    0.10
  WS02003072WS02003073 CONDUIT     27.13     0  07:49      0.49    0.06    0.10
  WS02004401WS02004402 CONDUIT     10.30     0  04:38      0.34    0.01    0.38
  WS02004402WS02004403 CONDUIT     10.49     0  01:25      0.38    0.02    0.41
  WS02004403WS02004404 CONDUIT     10.34     0  04:26      0.37    0.01    0.47
  WS02004404WS02004405 CONDUIT     10.34     0  04:30      0.30    0.10    0.51
  WS02004405WS02004406 CONDUIT     10.30     0  04:42      0.30    0.02    0.52
  WS02004406WS02004407 CONDUIT     10.28     0  05:19      0.06    0.00    0.29
  WS02004407WS02004409 CONDUIT     10.28     0  05:40      0.50    0.00    0.08
  WS02004409WS02004410 CONDUIT     10.28     0  05:14      0.33    0.01    0.14
  WS02004410WS02004411 CONDUIT     10.30     0  04:50      0.31    0.01    0.18
  WS02004411WS02004412 CONDUIT     10.38     0  04:41      0.35    0.01    0.22
  WS02004412WS02004413 CONDUIT     10.50     0  04:38      0.28    0.01    0.32
  WS02004413WS02003067 CONDUIT     10.28     0  05:21      0.08    0.00    0.23
  WS02006109WS02006110 CONDUIT     10.28     0  03:51      0.20    0.02    0.38
  WS02006110WS02006113 CONDUIT     10.28     0  05:08      0.09    0.01    0.27
  WS02006111WS02006112 CONDUIT     10.28     0  05:07      0.65    0.00    0.31
  WS02006112WS02006115 CONDUIT     10.58     0  02:07      0.09    0.01    0.34
  WS02006113WS02006111 CONDUIT     10.28     0  05:08      0.65    0.01    0.07
  WS02006115WS02006116 CONDUIT     10.81     0  02:07      0.44    0.01    0.24
  WS02006116WS02004401 CONDUIT     10.34     0  01:37      0.34    0.01    0.34
  WS02006228WS02006109 CONDUIT     10.28     0  03:01      0.32    0.04    0.39
  WS02006229WS02006228 CONDUIT     10.31     0  00:09      0.42    0.03    0.34
  WS02006230WS02006229 CONDUIT     10.49     0  00:19      0.36    0.23    0.31
  WS02006231WS02006230 CONDUIT      0.00     0  00:00      0.00    0.00    0.00
  WS02006232WS02006231 CONDUIT      0.00     0  00:00      0.00    0.00    0.00
  WS02006234WS02006232 CONDUIT      0.00     0  00:00      0.00    0.00    0.00
  WS02006235WS02006234 CONDUIT      0.00     0  00:00      0.00    0.00    0.00
  WS02006238WS02006235 CONDUIT      0.00     0  00:00      0.00    0.00    0.00
  WS02006239WS02006238 CONDUIT      0.00     0  00:00      0.00    0.00    0.00
  WS02006240WS02006239 CONDUIT      0.00     0  00:00      0.00    0.00    0.00
  WS02006242WS02006240 CONDUIT      0.00     0  00:00      0.00    0.00    0.00
  WS02006243WS02006242 CONDUIT      0.00     0  00:00      0.00    0.00    0.00
  WS02006245WS02006243 CONDUIT      0.00     0  00:00      0.00    0.00    0.00
  WS02006247WS02006245 CONDUIT      0.00     0  00:00      0.00    0.00    0.00
  WS02006248WS02006247 CONDUIT      0.00     0  00:00      0.00    0.00    0.00
  WS02006249WS02006248 CONDUIT      0.00     0  00:00      0.00    0.00    0.00
  WS02006251WS02006249 CONDUIT      0.00     0  00:00      0.00    0.00    0.00
  WS02006252WS02006251 CONDUIT      0.00     0  00:00      0.00    0.00    0.00
  WS02006256WS02006235 CONDUIT      0.00     0  00:00      0.00    0.00    0.00
  WSF200WS02003060     CONDUIT     10.28     0  05:43      0.43    0.00    0.05
  YS02001580YS02001583 CONDUIT     87.06     0  01:34      0.59    0.34    1.00
  YS02001583YS02001586 CONDUIT    143.51     0  01:34      0.59    0.22    1.00
  YS02001586YS02001590 CONDUIT    317.73     0  01:41      1.24    0.56    1.00
  YS02001590YS02001593 CONDUIT    317.80     0  01:41      1.12    1.99    1.00
  YS02001593YS02001596 CONDUIT    317.77     0  01:41      1.77    0.50    1.00
  YS02001596YS02001600 CONDUIT    317.80     0  01:41      1.28    0.62    1.00
  YS02001600YS02001601 CONDUIT    317.74     0  01:41      1.12    0.55    1.00
  YS02001601YS02001602 CONDUIT    513.16     0  02:47      1.81    1.85    1.00
  YS02001602YS02001605 CONDUIT    513.20     0  02:47      1.82   10.86    1.00
  YS02001605YS02001607 CONDUIT    513.42     0  01:33      1.82    2.82    1.00
  YS02001607YS02001610 CONDUIT    517.03     0  01:33      0.66    0.49    1.00
  YS02001610YS02001613 CONDUIT    616.56     0  01:52      0.79    0.71    1.00
  YS02001613YS02001616 CONDUIT    616.62     0  01:52      0.79    0.53    1.00
  YS02001616YS02001619 CONDUIT    616.44     0  01:52      0.78    1.07    1.00
  YS02001619YS02001622 CONDUIT   1053.24     0  02:04      1.34    1.55    1.00
  YS02001622YS02001625 CONDUIT   1053.24     0  02:04      1.34    0.56    1.00
  YS02001625YS02001629 CONDUIT   1005.98     0  02:30      1.28    0.48    1.00
  YS02001629YS02163301 CONDUIT   1138.18     0  01:53      1.45    1.40    1.00
  YS02001633YS02163601 CONDUIT   1374.76     0  01:38      1.75    1.44    1.00
  YS02001641YS02001644 CONDUIT   1374.17     0  01:38      1.75    4.44    1.00
  YS02001644YS02001647 CONDUIT   1778.97     0  01:38      2.27    1.04    1.00
  YS02001647YS02001649 CONDUIT   1799.10     0  01:38      2.32    0.95    1.00
  YS02001649YS02001757 CONDUIT   2031.33     0  01:39      2.59    1.23    1.00
  YS02001652YS02001649 CONDUIT   1948.04     0  01:50      2.48    0.97    1.00
  YS02001655YS02001652 CONDUIT   1946.80     0  01:50      2.48    0.95    1.00
  YS02001658YS02001655 CONDUIT   1944.48     0  01:50      2.48    0.82    1.00
  YS02001661YS02001658 CONDUIT   1941.17     0  01:50      2.47    0.76    1.00
  YS02001664YS02001661 CONDUIT   1937.13     0  01:50      2.47    0.61    1.00
  YS02001745YS02001748 CONDUIT   1210.17     0  01:50      2.16    0.47    1.00
  YS02001748YS02001751 CONDUIT   1210.32     0  01:50      1.69    0.61    1.00
  YS02001751YS02001754 CONDUIT   1210.78     0  01:50      1.54    0.58    1.00
  YS02001754YS02001757 CONDUIT   1211.03     0  01:50      1.54    0.49    1.00
  YS02001757CaochengTiaoxuchi CONDUIT   3461.76     0  01:49      6.98    1.50    0.60
  YS02001759YS02001757 CONDUIT   1487.73     0  01:48      1.89    1.06    1.00
  YS02001762YS02001759 CONDUIT    785.10     0  02:06      1.00    0.90    1.00
  YS02001765YS02001762 CONDUIT    784.86     0  02:06      1.00    0.74    1.00
  YS02001767YS02001765 CONDUIT    784.87     0  02:06      1.00    0.99    1.00
  YS02001770YS02001767 CONDUIT    784.86     0  02:06      1.00    3.11    1.00
  YS02001774YS02001770 CONDUIT    851.44     0  01:52      1.08    0.54    1.00
  YS02001779YS02001774 CONDUIT    851.35     0  01:52      1.08    0.43    1.00
  YS02001783YS02001784 CONDUIT   1218.55     0  01:49      2.42    1.68    1.00
  YS02001784YS02001785 CONDUIT   1218.71     0  01:50      2.42    2.84    1.00
  YS02001786YS02001788 CONDUIT   1218.99     0  01:49      2.57    2.35    0.90
  YS02001788YS02001790 CONDUIT   1219.43     0  01:49      2.75    0.90    0.84
  YS02001790YS02001791 CONDUIT   1288.13     0  01:55      3.44    1.40    0.71
  YS02001791YS02001793 CONDUIT   1255.36     0  01:55      6.74    0.54    0.42
  YS02001793JiankangQianchi CONDUIT   1290.02     0  01:55     10.75    0.10    0.50
  YS02001882YS02001884 CONDUIT     32.88     0  01:35      0.23    0.04    1.00
  YS02001884YS02001887 CONDUIT     81.21     0  01:35      0.18    0.11    1.00
  YS02001887YS02001890 CONDUIT   1797.64     0  01:49      2.29    3.08    1.00
  YS02001890YS02001895 CONDUIT    517.04     0  01:52      0.66    0.24    1.00
  YS02001895YS02001898 CONDUIT    517.05     0  01:52      0.66    0.90    1.00
  YS02001898YS02001901 CONDUIT    517.16     0  01:51      0.66    0.33    1.00
  YS02001901YS02001904 CONDUIT    517.21     0  01:51      0.66    0.80    1.00
  YS02001904YS02001907 CONDUIT    517.16     0  01:52      0.66    0.18    1.00
  YS02001907YS02006553 CONDUIT   1239.28     0  01:50      1.38    1.46    1.00
  YS02001910YS02001907 CONDUIT   1992.45     0  01:59      2.54    1.12    1.00
  YS02001915YS02001910 CONDUIT   1992.45     0  01:59      2.54    0.99    1.00
  YS02001918YS02001915 CONDUIT   1050.66     0  01:51      1.34    0.58    1.00
  YS02001920YS02001918 CONDUIT   1050.76     0  01:51      1.34    1.02    1.00
  YS02001923YS02001920 CONDUIT   1050.39     0  01:51      1.34    0.47    1.00
  YS02001926YS02001923 CONDUIT   1050.31     0  01:51      1.34    1.50    1.00
  YS02001929YS02001926 CONDUIT   1050.33     0  01:51      1.34    0.50    1.00
  YS02006553YS02006556 CONDUIT   1238.60     0  01:50      1.58    1.06    1.00
  YS02006556YS02006558 CONDUIT   1235.79     0  01:50      1.57    0.98    1.00
  YS02006558YS02006561 CONDUIT   1218.35     0  01:49      4.31    2.69    1.00
  YS02006561YS02001783 CONDUIT   1218.35     0  01:49      2.42    0.63    1.00
  YS02163301YS02001633 CONDUIT   1138.18     0  01:53      1.45    1.07    1.00
  YS02163601YS02164001 CONDUIT   1375.01     0  01:38      1.75    1.22    1.00
  YS02164001YS02001641 CONDUIT   1374.35     0  01:38      1.75    1.88    1.00
  2                    CONDUIT  16161.72     0  00:00     26.41    0.88    0.73
  3                    CONDUIT  17045.67     0  00:00     27.65    0.89    0.73
  4                    CONDUIT      0.00     0  00:00      0.00    0.00    0.40
  5                    CONDUIT   8590.66     0  00:00     10.94    1.24    1.00
  6                    CONDUIT   8788.77     0  00:00     11.19    1.25    1.00
  7                    CONDUIT      0.00     0  00:00      0.00    0.00    0.50
  
  
  ***************************
  Flow Classification Summary
  ***************************
  
  -------------------------------------------------------------------------------------
                      Adjusted    ---------- Fraction of Time in Flow Class ---------- 
                       /Actual         Up    Down  Sub   Sup   Up    Down  Norm  Inlet 
  Conduit               Length    Dry  Dry   Dry   Crit  Crit  Crit  Crit  Ltd   Ctrl  
  -------------------------------------------------------------------------------------
  1                       1.00   0.00  0.00  0.00  0.00  1.00  0.00  0.00  0.92  0.00
  WS02003060WS02003069    1.00   0.00  0.00  0.00  0.98  0.02  0.00  0.00  0.99  0.00
  WS02003066WSF200        1.00   0.78  0.00  0.00  0.00  0.22  0.00  0.00  0.45  0.00
  WS02003067WS02003066    1.00   0.74  0.03  0.00  0.23  0.00  0.00  0.00  0.00  0.00
  WS02003069WS02003072    1.00   0.00  0.00  0.00  0.99  0.01  0.00  0.00  0.99  0.00
  WS02003072WS02003073    1.00   0.00  0.00  0.00  0.00  0.00  0.00  1.00  0.00  0.00
  WS02004401WS02004402    1.00   0.10  0.00  0.00  0.90  0.00  0.00  0.00  0.05  0.00
  WS02004402WS02004403    1.00   0.10  0.00  0.00  0.90  0.00  0.00  0.00  0.00  0.00
  WS02004403WS02004404    1.00   0.10  0.00  0.00  0.90  0.00  0.00  0.00  0.03  0.00
  WS02004404WS02004405    1.00   0.11  0.00  0.00  0.89  0.00  0.00  0.00  0.00  0.00
  WS02004405WS02004406    1.00   0.11  0.00  0.00  0.89  0.00  0.00  0.00  0.00  0.00
  WS02004406WS02004407    1.00   0.11  0.48  0.00  0.41  0.00  0.00  0.00  0.00  0.00
  WS02004407WS02004409    1.00   0.59  0.00  0.00  0.40  0.00  0.00  0.00  0.61  0.00
  WS02004409WS02004410    1.00   0.59  0.00  0.00  0.41  0.00  0.00  0.00  0.05  0.00
  WS02004410WS02004411    1.00   0.60  0.00  0.00  0.40  0.00  0.00  0.00  0.05  0.00
  WS02004411WS02004412    1.00   0.60  0.00  0.00  0.40  0.00  0.00  0.00  0.00  0.00
  WS02004412WS02004413    1.00   0.61  0.00  0.00  0.39  0.00  0.00  0.00  0.05  0.00
  WS02004413WS02003067    1.00   0.61  0.13  0.00  0.00  0.00  0.26  0.00  0.00  0.00
  WS02006109WS02006110    1.00   0.01  0.02  0.00  0.95  0.00  0.01  0.00  0.00  0.00
  WS02006110WS02006113    1.00   0.03  0.05  0.00  0.92  0.00  0.00  0.00  0.00  0.00
  WS02006111WS02006112    1.00   0.08  0.00  0.00  0.91  0.00  0.00  0.01  0.91  0.00
  WS02006112WS02006115    1.00   0.08  0.02  0.00  0.90  0.00  0.00  0.00  0.00  0.00
  WS02006113WS02006111    1.00   0.08  0.00  0.00  0.02  0.90  0.00  0.00  0.00  0.00
  WS02006115WS02006116    1.00   0.10  0.00  0.00  0.72  0.00  0.00  0.18  0.01  0.00
  WS02006116WS02004401    1.00   0.10  0.00  0.00  0.90  0.00  0.00  0.00  0.01  0.00
  WS02006228WS02006109    1.00   0.00  0.00  0.00  0.97  0.00  0.00  0.03  0.00  0.00
  WS02006229WS02006228    1.00   0.00  0.00  0.00  0.97  0.00  0.00  0.03  0.00  0.00
  WS02006230WS02006229    1.00   0.00  0.00  0.00  0.94  0.00  0.00  0.06  0.00  0.00
  WS02006231WS02006230    1.00   1.00  0.00  0.00  0.00  0.00  0.00  0.00  0.00  0.00
  WS02006232WS02006231    1.00   1.00  0.00  0.00  0.00  0.00  0.00  0.00  0.00  0.00
  WS02006234WS02006232    1.00   1.00  0.00  0.00  0.00  0.00  0.00  0.00  0.00  0.00
  WS02006235WS02006234    1.00   1.00  0.00  0.00  0.00  0.00  0.00  0.00  0.00  0.00
  WS02006238WS02006235    1.00   1.00  0.00  0.00  0.00  0.00  0.00  0.00  0.00  0.00
  WS02006239WS02006238    1.00   1.00  0.00  0.00  0.00  0.00  0.00  0.00  0.00  0.00
  WS02006240WS02006239    1.00   1.00  0.00  0.00  0.00  0.00  0.00  0.00  0.00  0.00
  WS02006242WS02006240    1.00   1.00  0.00  0.00  0.00  0.00  0.00  0.00  0.00  0.00
  WS02006243WS02006242    1.00   1.00  0.00  0.00  0.00  0.00  0.00  0.00  0.00  0.00
  WS02006245WS02006243    1.00   1.00  0.00  0.00  0.00  0.00  0.00  0.00  0.00  0.00
  WS02006247WS02006245    1.00   1.00  0.00  0.00  0.00  0.00  0.00  0.00  0.00  0.00
  WS02006248WS02006247    1.00   1.00  0.00  0.00  0.00  0.00  0.00  0.00  0.00  0.00
  WS02006249WS02006248    1.00   1.00  0.00  0.00  0.00  0.00  0.00  0.00  0.00  0.00
  WS02006251WS02006249    1.00   1.00  0.00  0.00  0.00  0.00  0.00  0.00  0.00  0.00
  WS02006252WS02006251    1.00   1.00  0.00  0.00  0.00  0.00  0.00  0.00  0.00  0.00
  WS02006256WS02006235    1.00   1.00  0.00  0.00  0.00  0.00  0.00  0.00  0.00  0.00
  WSF200WS02003060        1.00   0.00  0.78  0.00  0.22  0.00  0.00  0.00  0.46  0.00
  YS02001580YS02001583    1.00   0.16  0.30  0.00  0.55  0.00  0.00  0.00  0.63  0.00
  YS02001583YS02001586    1.00   0.21  0.19  0.00  0.60  0.00  0.00  0.00  0.63  0.00
  YS02001586YS02001590    1.00   0.10  0.00  0.00  0.72  0.02  0.00  0.16  0.32  0.00
  YS02001590YS02001593    1.00   0.10  0.00  0.00  0.44  0.00  0.45  0.00  0.00  0.00
  YS02001593YS02001596    1.00   0.11  0.00  0.00  0.46  0.01  0.00  0.42  0.01  0.00
  YS02001596YS02001600    1.00   0.11  0.00  0.00  0.52  0.01  0.00  0.36  0.03  0.00
  YS02001600YS02001601    1.00   0.10  0.00  0.00  0.89  0.00  0.00  0.00  0.56  0.00
  YS02001601YS02001602    1.00   0.10  0.00  0.00  0.89  0.00  0.00  0.00  0.00  0.00
  YS02001602YS02001605    1.00   0.11  0.00  0.00  0.89  0.00  0.00  0.00  0.00  0.00
  YS02001605YS02001607    1.00   0.11  0.00  0.00  0.89  0.00  0.00  0.00  0.00  0.00
  YS02001607YS02001610    1.00   0.11  0.00  0.00  0.89  0.00  0.00  0.00  0.01  0.00
  YS02001610YS02001613    1.00   0.10  0.00  0.00  0.90  0.00  0.00  0.00  0.00  0.00
  YS02001613YS02001616    1.00   0.10  0.00  0.00  0.90  0.00  0.00  0.00  0.00  0.00
  YS02001616YS02001619    1.00   0.10  0.00  0.00  0.90  0.00  0.00  0.00  0.00  0.00
  YS02001619YS02001622    1.00   0.10  0.00  0.00  0.90  0.00  0.00  0.00  0.27  0.00
  YS02001622YS02001625    1.00   0.10  0.00  0.00  0.90  0.00  0.00  0.00  0.02  0.00
  YS02001625YS02001629    1.00   0.10  0.01  0.00  0.49  0.00  0.40  0.00  0.00  0.00
  YS02001629YS02163301    1.00   0.11  0.00  0.00  0.89  0.00  0.00  0.00  0.00  0.00
  YS02001633YS02163601    1.00   0.11  0.00  0.00  0.89  0.00  0.00  0.00  0.01  0.00
  YS02001641YS02001644    1.00   0.10  0.00  0.00  0.90  0.00  0.00  0.00  0.00  0.00
  YS02001644YS02001647    1.00   0.10  0.01  0.00  0.89  0.00  0.00  0.00  0.00  0.00
  YS02001647YS02001649    1.00   0.11  0.01  0.00  0.60  0.29  0.00  0.00  0.54  0.00
  YS02001649YS02001757    1.00   0.03  0.08  0.00  0.62  0.27  0.00  0.00  0.65  0.00
  YS02001652YS02001649    1.00   0.11  0.00  0.00  0.88  0.01  0.00  0.00  0.57  0.00
  YS02001655YS02001652    1.00   0.11  0.00  0.00  0.52  0.01  0.00  0.37  0.08  0.00
  YS02001658YS02001655    1.00   0.11  0.00  0.00  0.58  0.31  0.00  0.00  0.68  0.00
  YS02001661YS02001658    1.00   0.11  0.00  0.00  0.40  0.49  0.00  0.00  0.71  0.00
  YS02001664YS02001661    1.00   0.10  0.00  0.00  0.59  0.31  0.00  0.00  0.82  0.00
  YS02001745YS02001748    1.00   0.10  0.00  0.00  0.21  0.02  0.00  0.67  0.03  0.00
  YS02001748YS02001751    1.00   0.10  0.00  0.00  0.59  0.31  0.00  0.00  0.69  0.00
  YS02001751YS02001754    1.00   0.10  0.00  0.00  0.45  0.01  0.00  0.43  0.08  0.00
  YS02001754YS02001757    1.00   0.03  0.08  0.00  0.90  0.00  0.00  0.00  0.65  0.00
  YS02001757CaochengTiaoxuchi    1.00   0.00  0.03  0.00  0.08  0.89  0.00  0.00  0.15  0.00
  YS02001759YS02001757    1.00   0.03  0.08  0.00  0.89  0.00  0.00  0.00  0.49  0.00
  YS02001762YS02001759    1.00   0.10  0.00  0.00  0.89  0.00  0.00  0.00  0.03  0.00
  YS02001765YS02001762    1.00   0.11  0.00  0.00  0.89  0.00  0.00  0.00  0.57  0.00
  YS02001767YS02001765    1.00   0.10  0.00  0.00  0.90  0.00  0.00  0.00  0.00  0.00
  YS02001770YS02001767    1.00   0.10  0.00  0.00  0.90  0.00  0.00  0.00  0.00  0.00
  YS02001774YS02001770    1.00   0.11  0.00  0.00  0.80  0.00  0.09  0.00  0.01  0.00
  YS02001779YS02001774    1.00   0.11  0.28  0.00  0.61  0.00  0.00  0.00  0.60  0.00
  YS02001783YS02001784    1.00   0.12  0.00  0.00  0.88  0.00  0.00  0.00  0.54  0.00
  YS02001784YS02001785    1.00   0.12  0.00  0.00  0.88  0.00  0.00  0.00  0.36  0.00
  YS02001786YS02001788    1.00   0.12  0.00  0.00  0.58  0.30  0.00  0.00  0.00  0.00
  YS02001788YS02001790    1.00   0.12  0.00  0.00  0.14  0.74  0.00  0.00  0.60  0.00
  YS02001790YS02001791    1.00   0.12  0.00  0.00  0.00  0.88  0.00  0.00  0.13  0.00
  YS02001791YS02001793    1.00   0.12  0.00  0.00  0.00  0.88  0.00  0.00  0.01  0.00
  YS02001793JiankangQianchi    1.00   0.00  0.12  0.00  0.00  0.88  0.00  0.00  0.07  0.00
  YS02001882YS02001884    1.00   0.11  0.00  0.00  0.89  0.00  0.00  0.00  0.00  0.00
  YS02001884YS02001887    1.00   0.11  0.00  0.00  0.89  0.00  0.00  0.00  0.00  0.00
  YS02001887YS02001890    1.00   0.10  0.00  0.00  0.89  0.00  0.00  0.00  0.00  0.00
  YS02001890YS02001895    1.00   0.11  0.01  0.00  0.89  0.00  0.00  0.00  0.00  0.00
  YS02001895YS02001898    1.00   0.11  0.00  0.00  0.88  0.00  0.01  0.00  0.00  0.00
  YS02001898YS02001901    1.00   0.11  0.00  0.00  0.88  0.00  0.00  0.00  0.00  0.00
  YS02001901YS02001904    1.00   0.11  0.00  0.00  0.88  0.00  0.00  0.00  0.00  0.00
  YS02001904YS02001907    1.00   0.10  0.01  0.00  0.88  0.00  0.00  0.00  0.00  0.00
  YS02001907YS02006553    1.00   0.10  0.00  0.00  0.89  0.00  0.00  0.00  0.00  0.00
  YS02001910YS02001907    1.00   0.10  0.00  0.00  0.89  0.00  0.00  0.01  0.01  0.00
  YS02001915YS02001910    1.00   0.10  0.00  0.00  0.89  0.01  0.00  0.00  0.01  0.00
  YS02001918YS02001915    1.00   0.10  0.01  0.00  0.89  0.00  0.00  0.00  0.65  0.00
  YS02001920YS02001918    1.00   0.11  0.01  0.00  0.89  0.00  0.00  0.00  0.00  0.00
  YS02001923YS02001920    1.00   0.11  0.00  0.00  0.89  0.00  0.00  0.00  0.71  0.00
  YS02001926YS02001923    1.00   0.10  0.00  0.00  0.28  0.00  0.61  0.00  0.00  0.00
  YS02001929YS02001926    1.00   0.10  0.00  0.00  0.90  0.00  0.00  0.00  0.76  0.00
  YS02006553YS02006556    1.00   0.11  0.00  0.00  0.89  0.00  0.00  0.00  0.00  0.00
  YS02006556YS02006558    1.00   0.10  0.00  0.00  0.89  0.00  0.00  0.00  0.00  0.00
  YS02006558YS02006561    1.00   0.12  0.00  0.00  0.26  0.62  0.00  0.00  0.13  0.00
  YS02006561YS02001783    1.00   0.12  0.00  0.00  0.40  0.48  0.00  0.00  0.63  0.00
  YS02163301YS02001633    1.00   0.10  0.01  0.00  0.89  0.00  0.00  0.00  0.00  0.00
  YS02163601YS02164001    1.00   0.11  0.00  0.00  0.89  0.00  0.00  0.00  0.01  0.00
  YS02164001YS02001641    1.00   0.10  0.00  0.00  0.89  0.00  0.00  0.00  0.00  0.00
  2                       1.00   0.00  0.00  0.00  0.00  1.00  0.00  0.00  0.12  0.00
  3                       1.00   0.00  0.00  0.00  0.00  1.00  0.00  0.00  0.09  0.00
  4                       1.00   0.00  1.00  0.00  0.00  0.00  0.00  0.00  0.00  0.00
  5                       1.00   0.00  0.00  0.00  0.04  0.96  0.00  0.00  0.32  0.00
  6                       1.00   0.00  0.00  0.00  0.04  0.96  0.00  0.00  0.32  0.00
  7                       1.00   0.00  1.00  0.00  0.00  0.00  0.00  0.00  0.00  0.00
  
  
  *************************
  Conduit Surcharge Summary
  *************************
  
  ----------------------------------------------------------------------------
                                                           Hours        Hours 
                         --------- Hours Full --------   Above Full   Capacity
  Conduit                Both Ends  Upstream  Dnstream   Normal Flow   Limited
  ----------------------------------------------------------------------------
  YS02001580YS02001583        1.22      1.22      1.24      0.01         0.01
  YS02001583YS02001586        1.22      1.22      1.35      0.01         0.01
  YS02001586YS02001590        1.36      1.36      1.46      0.01         0.01
  YS02001590YS02001593        1.47      1.47      1.49      1.50         0.01
  YS02001593YS02001596        1.48      1.48      1.57      0.01         0.01
  YS02001596YS02001600        1.62      1.62      1.68      0.01         0.01
  YS02001600YS02001601        1.72      1.72      1.93      0.01         0.01
  YS02001601YS02001602        1.84      1.84      1.96      1.70         0.01
  YS02001602YS02001605        1.81      1.81      1.84      2.61         0.01
  YS02001605YS02001607        1.77      1.81      1.77      1.90         1.77
  YS02001607YS02001610        1.36      1.36      1.40      0.01         0.01
  YS02001610YS02001613        1.34      1.34      1.40      0.01         0.01
  YS02001613YS02001616        1.27      1.27      1.34      0.01         0.01
  YS02001616YS02001619        1.25      1.25      1.27      0.31         0.33
  YS02001619YS02001622        1.24      1.25      1.24      1.50         1.23
  YS02001622YS02001625        1.24      1.24      1.52      0.01         0.01
  YS02001625YS02001629        1.05      1.05      1.52      0.01         0.01
  YS02001629YS02163301        1.50      1.50      1.50      0.80         0.63
  YS02001633YS02163601        1.52      1.52      1.55      0.81         0.82
  YS02001641YS02001644        1.25      1.36      1.25      1.96         1.25
  YS02001644YS02001647        0.81      0.81      1.25      0.04         0.01
  YS02001647YS02001649        0.81      0.81      0.86      0.01         0.01
  YS02001649YS02001757        0.83      0.86      0.83      0.62         0.41
  YS02001652YS02001649        0.72      0.72      0.86      0.01         0.01
  YS02001655YS02001652        0.59      0.59      0.70      0.01         0.01
  YS02001658YS02001655        0.47      0.47      0.59      0.01         0.01
  YS02001661YS02001658        0.27      0.27      0.47      0.01         0.01
  YS02001664YS02001661        0.12      0.12      0.32      0.01         0.01
  YS02001745YS02001748        0.10      0.10      0.37      0.01         0.01
  YS02001748YS02001751        0.43      0.43      0.50      0.01         0.01
  YS02001751YS02001754        0.50      0.50      0.59      0.01         0.01
  YS02001754YS02001757        0.62      0.62      0.83      0.01         0.01
  YS02001757CaochengTiaoxuchi        0.01      0.83      0.01      0.99         0.01
  YS02001759YS02001757        0.77      0.77      0.83      0.13         0.14
  YS02001762YS02001759        0.74      0.74      0.77      0.01         0.02
  YS02001765YS02001762        0.72      0.72      0.74      0.01         0.01
  YS02001767YS02001765        0.70      0.70      0.72      0.01         0.03
  YS02001770YS02001767        0.70      0.71      0.70      1.02         0.60
  YS02001774YS02001770        0.69      0.69      0.76      0.01         0.01
  YS02001779YS02001774        0.62      0.62      0.76      0.01         0.01
  YS02001783YS02001784        0.99      1.03      0.99      1.24         0.99
  YS02001784YS02001785        0.83      0.99      0.83      1.60         0.83
  YS02001786YS02001788        0.01      0.83      0.01      1.44         0.01
  YS02001790YS02001791        0.01      0.01      0.01      0.97         0.01
  YS02001882YS02001884        0.94      0.94      0.96      0.01         0.01
  YS02001884YS02001887        0.99      0.99      1.01      0.01         0.01
  YS02001887YS02001890        1.03      1.03      1.04      0.35         0.01
  YS02001890YS02001895        0.93      0.93      1.07      0.01         0.01
  YS02001895YS02001898        0.91      0.91      0.93      0.01         0.01
  YS02001898YS02001901        0.93      0.93      0.99      0.01         0.01
  YS02001901YS02001904        0.98      0.98      0.99      0.01         0.01
  YS02001904YS02001907        0.98      0.98      1.39      0.01         0.01
  YS02001907YS02006553        1.60      1.60      1.64      0.09         0.09
  YS02001910YS02001907        1.07      1.07      1.34      0.24         0.24
  YS02001915YS02001910        0.94      0.94      1.07      0.01         0.01
  YS02001918YS02001915        0.82      0.82      0.94      0.01         0.01
  YS02001920YS02001918        0.82      0.82      0.84      0.03         0.01
  YS02001923YS02001920        0.76      0.76      0.84      0.01         0.01
  YS02001926YS02001923        0.39      0.39      0.43      0.20         0.01
  YS02001929YS02001926        0.26      0.26      0.43      0.01         0.01
  YS02006553YS02006556        1.19      1.19      1.38      0.03         0.04
  YS02006556YS02006558        1.28      1.28      1.42      0.01         0.01
  YS02006558YS02006561        0.86      1.18      0.86      1.55         0.86
  YS02006561YS02001783        0.78      0.78      1.03      0.01         0.01
  YS02163301YS02001633        1.50      1.50      1.54      0.09         0.01
  YS02163601YS02164001        1.39      1.39      1.55      0.52         0.01
  YS02164001YS02001641        1.36      1.39      1.36      1.27         1.04
  5                           0.01      0.01      0.01      0.01         0.01
  6                           0.01      0.01      0.01      0.01         0.01
  

  Analysis begun on:  Thu Sep  7 11:14:55 2023
  Analysis ended on:  Thu Sep  7 11:15:21 2023
  Total elapsed time: 00:00:26