
  OWA STORM WATER MANAGEMENT MODEL - VERSION v5.1.14 (OWA 2022-07-31)
  --------------------------------------------------------------

  WARNING 04: minimum elevation drop used for Conduit WS02004404WS02004405
  WARNING 03: negative offset ignored for Link YS02001904YS02001907
  
  *********************************************************
  NOTE: The summary statistics displayed in this report are
  based on results found at every computational time step,  
  not just on results from each reporting time step.
  *********************************************************
  
  ****************
  Analysis Options
  ****************
  Flow Units ............... LPS
  Process Models:
    Rainfall/Runoff ........ YES
    RDII ................... NO
    Snowmelt ............... NO
    Groundwater ............ NO
    Flow Routing ........... YES
    Ponding Allowed ........ NO
    Water Quality .......... NO
  Infiltration Method ...... HORTON
  Flow Routing Method ...... DYNWAVE
  Surcharge Method ......... EXTRAN
  Starting Date ............ 08/28/2015 08:00:00
  Ending Date .............. 08/28/2015 16:00:00
  Antecedent Dry Days ...... 8.0
  Report Time Step ......... 00:01:00
  Wet Time Step ............ 00:01:00
  Dry Time Step ............ 00:01:00
  Routing Time Step ........ 30.00 sec
  Variable Time Step ....... YES
  Maximum Trials ........... 8
  Number of Threads ........ 4
  Head Tolerance ........... 0.001500 m
  
  
  **************************        Volume         Depth
  Runoff Quantity Continuity     hectare-m            mm
  **************************     ---------       -------
  Total Precipitation ......         7.899       238.151
  Evaporation Loss .........         0.000         0.000
  Infiltration Loss ........         0.111         3.349
  Surface Runoff ...........         7.757       233.855
  Final Storage ............         0.033         1.000
  Continuity Error (%) .....        -0.022
  
  
  **************************        Volume        Volume
  Flow Routing Continuity        hectare-m      10^6 ltr
  **************************     ---------     ---------
  Dry Weather Inflow .......         0.000         0.000
  Wet Weather Inflow .......         7.756        77.566
  Groundwater Inflow .......         0.000         0.000
  RDII Inflow ..............         0.000         0.000
  External Inflow ..........         0.083         0.834
  External Outflow .........         3.168        31.680
  Flooding Loss ............         4.897        48.971
  Evaporation Loss .........         0.000         0.000
  Exfiltration Loss ........         0.000         0.000
  Initial Stored Volume ....         0.248         2.479
  Final Stored Volume ......         0.032         0.319
  Continuity Error (%) .....        -0.115
  
  
  *************************
  Highest Continuity Errors
  *************************
  Node WS02004406 (10.53%)
  Node WS02004413 (8.09%)
  Node WS02004405 (6.13%)
  Node WS02006112 (5.18%)
  Node WS02004403 (4.42%)
  
  
  ***************************
  Time-Step Critical Elements
  ***************************
  Link 3 (98.01%)
  
  
  ********************************
  Highest Flow Instability Indexes
  ********************************
  Link YS02001882YS02001884 (15)
  Link YS02001884YS02001887 (14)
  Link YS02001607YS02001610 (13)
  Link YS02001580YS02001583 (13)
  Link YS02001790YS02001791 (11)
  
  
  *************************
  Routing Time Step Summary
  *************************
  Minimum Time Step           :     0.00 sec
  Average Time Step           :     1.60 sec
  Maximum Time Step           :     5.22 sec
  Percent in Steady State     :     0.00
  Average Iterations per Step :     2.88
  Percent Not Converging      :     8.72
  
  
  ***************************
  Subcatchment Runoff Summary
  ***************************
  
  ------------------------------------------------------------------------------------------------------------------------------
                            Total      Total      Total      Total     Imperv       Perv      Total       Total     Peak  Runoff
                           Precip      Runon       Evap      Infil     Runoff     Runoff     Runoff      Runoff   Runoff   Coeff
  Subcatchment                 mm         mm         mm         mm         mm         mm         mm    10^6 ltr      LPS
  ------------------------------------------------------------------------------------------------------------------------------
  sub60                    238.15       0.00       0.00       1.95     208.41      26.63     235.04        3.09  2055.78   0.987
  sub61                    238.15       0.00       0.00       2.84     196.57      37.65     234.23        4.30  2864.71   0.984
  sub62                    238.15       0.00       0.00       1.30     217.85      17.76     235.61        6.46  4166.93   0.989
  sub63                    238.15       0.00       0.00       5.31     168.15      63.77     231.92        5.26  3408.42   0.974
  sub64                    238.15       0.00       0.00       2.68     201.25      33.05     234.31        5.63  3539.74   0.984
  sub65                    238.15       0.00       0.00       2.32     205.97      28.65     234.62        6.46  4003.07   0.985
  sub66                    238.15       0.00       0.00       6.71     168.03      62.36     230.39       10.74  5928.09   0.967
  sub67                    238.15       0.00       0.00       1.24     217.90      17.82     235.72        4.38  2968.18   0.990
  sub68                    238.15       0.00       0.00       2.36     203.66      30.99     234.65        6.46  4229.62   0.985
  sub69                    238.15       0.00       0.00       2.18     202.35      33.55     235.90        8.73  5343.66   0.991
  sub70                    238.15       0.00       0.00       7.47     157.03      73.51     230.54        6.66  3410.01   0.968
  sub71                    238.15       0.00       0.00       1.34     217.80      17.71     235.52        6.16  3829.49   0.989
  sub72                    238.15       0.00       0.00       1.20     220.10      15.48     235.58        3.24  1927.14   0.989
  
  
  ******************
  Node Depth Summary
  ******************
  
  ---------------------------------------------------------------------------------
                                 Average  Maximum  Maximum  Time of Max    Reported
                                   Depth    Depth      HGL   Occurrence   Max Depth
  Node                 Type       Meters   Meters   Meters  days hr:min      Meters
  ---------------------------------------------------------------------------------
  WS02003060           JUNCTION     0.07     0.09     5.02     0  06:21        0.09
  WS02003066           JUNCTION     0.02     0.09     5.64     0  05:31        0.09
  WS02003067           JUNCTION     0.08     0.33     5.65     0  05:33        0.33
  WS02003069           JUNCTION     0.08     0.10     4.68     0  07:45        0.10
  WS02003072           JUNCTION     0.12     0.15     4.52     0  07:47        0.15
  WS02003073           JUNCTION     0.06     0.07     4.14     0  07:50        0.07
  WS02004401           JUNCTION     0.24     0.36     6.36     0  05:11        0.36
  WS02004402           JUNCTION     0.27     0.40     6.36     0  05:01        0.40
  WS02004403           JUNCTION     0.29     0.43     6.36     0  04:52        0.43
  WS02004404           JUNCTION     0.36     0.51     6.36     0  05:07        0.51
  WS02004405           JUNCTION     0.36     0.51     6.36     0  04:58        0.51
  WS02004406           JUNCTION     0.38     0.53     6.36     0  05:23        0.53
  WS02004407           JUNCTION     0.02     0.04     6.36     0  05:40        0.04
  WS02004409           JUNCTION     0.04     0.12     5.89     0  06:17        0.12
  WS02004410           JUNCTION     0.05     0.16     5.88     0  05:37        0.16
  WS02004411           JUNCTION     0.06     0.20     5.88     0  05:15        0.20
  WS02004412           JUNCTION     0.07     0.24     5.88     0  05:03        0.24
  WS02004413           JUNCTION     0.12     0.41     5.88     0  05:17        0.41
  WS02006109           JUNCTION     0.32     0.34     6.96     0  04:21        0.34
  WS02006110           JUNCTION     0.35     0.37     6.96     0  05:09        0.37
  WS02006111           JUNCTION     0.05     0.05     6.76     0  05:26        0.05
  WS02006112           JUNCTION     0.37     0.48     6.36     0  06:31        0.48
  WS02006113           JUNCTION     0.06     0.06     6.96     0  05:13        0.06
  WS02006115           JUNCTION     0.14     0.22     6.36     0  06:04        0.22
  WS02006116           JUNCTION     0.21     0.32     6.36     0  05:37        0.32
  WS02006228           JUNCTION     0.29     0.31     6.96     0  03:46        0.31
  WS02006229           JUNCTION     0.25     0.27     6.96     0  03:27        0.27
  WS02006230           JUNCTION     0.21     0.22     6.96     0  03:59        0.22
  WS02006231           JUNCTION     0.00     0.00     7.12     0  00:00        0.00
  WS02006232           JUNCTION     0.00     0.00     7.04     0  00:00        0.00
  WS02006234           JUNCTION     0.00     0.00     7.16     0  00:00        0.00
  WS02006235           JUNCTION     0.00     0.00     7.16     0  00:00        0.00
  WS02006238           JUNCTION     0.00     0.00     7.14     0  00:00        0.00
  WS02006239           JUNCTION     0.00     0.00     7.21     0  00:00        0.00
  WS02006240           JUNCTION     0.00     0.00     7.29     0  00:00        0.00
  WS02006242           JUNCTION     0.00     0.00     7.27     0  00:00        0.00
  WS02006243           JUNCTION     0.00     0.00     7.42     0  00:00        0.00
  WS02006245           JUNCTION     0.00     0.00     7.48     0  00:00        0.00
  WS02006247           JUNCTION     0.00     0.00     7.50     0  00:00        0.00
  WS02006248           JUNCTION     0.00     0.00     7.59     0  00:00        0.00
  WS02006249           JUNCTION     0.00     0.00     7.60     0  00:00        0.00
  WS02006251           JUNCTION     0.00     0.00     7.67     0  00:00        0.00
  WS02006252           JUNCTION     0.00     0.00     8.24     0  00:00        0.00
  WS02006256           JUNCTION     0.00     0.00     6.93     0  00:00        0.00
  WSF200               JUNCTION     0.01     0.04     5.28     0  05:43        0.04
  YS02001580           JUNCTION     0.34     1.05     9.59     0  01:30        1.05
  YS02001583           JUNCTION     0.38     1.14     9.64     0  01:30        1.14
  YS02001586           JUNCTION     0.55     1.13     9.30     0  01:29        1.13
  YS02001590           JUNCTION     0.71     1.38     9.24     0  01:29        1.38
  YS02001593           JUNCTION     0.63     1.31     9.18     0  01:29        1.30
  YS02001596           JUNCTION     0.83     1.68     9.10     0  01:29        1.66
  YS02001600           JUNCTION     0.96     1.87     9.00     0  01:29        1.86
  YS02001601           JUNCTION     1.15     2.06     8.90     0  01:29        2.06
  YS02001602           JUNCTION     1.02     1.87     8.77     0  01:39        1.87
  YS02001605           JUNCTION     0.95     1.77     8.68     0  01:51        1.77
  YS02001607           JUNCTION     0.87     1.65     8.50     0  01:58        1.65
  YS02001610           JUNCTION     0.92     1.68     8.48     0  01:41        1.68
  YS02001613           JUNCTION     0.88     1.67     8.51     0  02:30        1.66
  YS02001616           JUNCTION     0.81     1.61     8.52     0  02:06        1.61
  YS02001619           JUNCTION     0.80     1.61     8.54     0  02:06        1.61
  YS02001622           JUNCTION     0.78     1.58     8.48     0  02:06        1.58
  YS02001625           JUNCTION     1.01     1.78     8.38     0  01:41        1.78
  YS02001629           JUNCTION     0.95     1.85     8.40     0  01:46        1.85
  YS02001633           JUNCTION     1.03     2.08     8.53     0  02:16        2.08
  YS02001641           JUNCTION     0.97     1.97     8.40     0  02:20        1.96
  YS02001644           JUNCTION     0.95     1.92     8.35     0  01:51        1.92
  YS02001647           JUNCTION     0.72     1.83     8.44     0  01:53        1.79
  YS02001649           JUNCTION     0.80     2.05     8.44     0  02:17        2.05
  YS02001652           JUNCTION     0.67     2.15     8.75     0  02:19        2.14
  YS02001655           JUNCTION     0.56     2.20     9.05     0  01:51        2.20
  YS02001658           JUNCTION     0.47     2.30     9.44     0  01:52        2.30
  YS02001661           JUNCTION     0.45     2.44     9.84     0  02:22        2.44
  YS02001664           JUNCTION     0.28     2.31    10.23     0  02:19        2.31
  YS02001745           JUNCTION     0.27     1.93     9.45     0  02:24        1.93
  YS02001748           JUNCTION     0.40     2.11     9.19     0  02:24        2.11
  YS02001751           JUNCTION     0.47     2.07     8.95     0  02:24        2.07
  YS02001754           JUNCTION     0.58     2.11     8.72     0  02:24        2.11
  YS02001757           JUNCTION     0.80     2.20     8.46     0  02:24        2.20
  YS02001759           JUNCTION     0.75     2.21     8.57     0  02:19        2.21
  YS02001762           JUNCTION     0.73     2.15     8.55     0  02:19        2.15
  YS02001765           JUNCTION     0.70     2.08     8.53     0  02:21        2.08
  YS02001767           JUNCTION     0.69     2.01     8.50     0  02:19        2.01
  YS02001770           JUNCTION     0.70     1.95     8.44     0  02:10        1.95
  YS02001774           JUNCTION     0.77     2.00     8.42     0  02:19        1.99
  YS02001779           JUNCTION     0.57     1.68     8.37     0  01:57        1.68
  YS02001783           JUNCTION     0.59     1.48     7.62     0  02:22        1.48
  YS02001784           JUNCTION     0.56     1.31     7.38     0  02:24        1.30
  YS02001786           JUNCTION     0.44     0.98     7.01     0  02:27        0.98
  YS02001788           JUNCTION     0.32     0.68     6.65     0  02:22        0.67
  YS02001790           JUNCTION     0.36     0.74     6.38     0  02:29        0.72
  YS02001791           JUNCTION     0.22     0.46     5.93     0  02:24        0.44
  YS02001793           JUNCTION     0.11     0.23     5.06     0  02:25        0.23
  YS02001882           JUNCTION     0.76     1.83     8.55     0  02:19        1.83
  YS02001884           JUNCTION     0.85     1.93     8.55     0  02:19        1.93
  YS02001887           JUNCTION     0.92     2.00     8.54     0  02:19        2.00
  YS02001890           JUNCTION     0.93     1.81     8.32     0  01:53        1.81
  YS02001895           JUNCTION     0.71     1.57     8.31     0  02:41        1.56
  YS02001898           JUNCTION     0.72     1.57     8.31     0  02:41        1.55
  YS02001901           JUNCTION     0.82     1.68     8.29     0  02:41        1.67
  YS02001904           JUNCTION     0.80     1.64     8.27     0  02:41        1.63
  YS02001907           JUNCTION     1.10     1.96     8.25     0  01:41        1.96
  YS02001910           JUNCTION     0.96     2.00     8.51     0  02:11        2.00
  YS02001915           JUNCTION     0.81     2.00     8.72     0  02:11        2.00
  YS02001918           JUNCTION     0.61     1.81     8.88     0  02:19        1.81
  YS02001920           JUNCTION     0.68     2.03     9.03     0  02:23        2.02
  YS02001923           JUNCTION     0.54     1.91     9.17     0  02:22        1.91
  YS02001926           JUNCTION     0.51     1.87     9.32     0  02:23        1.87
  YS02001929           JUNCTION     0.38     1.78     9.47     0  02:19        1.78
  YS02006553           JUNCTION     1.11     2.15     8.43     0  02:19        2.15
  YS02006556           JUNCTION     1.09     2.35     8.66     0  02:19        2.35
  YS02006558           JUNCTION     1.14     2.50     8.77     0  02:19        2.50
  YS02006561           JUNCTION     0.41     1.22     7.88     0  02:19        1.22
  YS02163301           JUNCTION     0.98     1.95     8.47     0  02:29        1.95
  YS02163601           JUNCTION     1.04     2.08     8.47     0  02:20        2.07
  YS02164001           JUNCTION     0.97     1.97     8.43     0  02:20        1.97
  CC-1                 OUTFALL      0.12     0.73     0.73     0  00:00        0.38
  CC-2                 OUTFALL      0.12     0.73     0.73     0  00:00        0.38
  JK-1                 OUTFALL      0.11     1.00     1.00     0  00:00        0.21
  JK-2                 OUTFALL      0.11     1.00     1.00     0  00:00        0.21
  WSC                  OUTFALL      0.06     0.07     0.74     0  07:50        0.07
  CC-storage           STORAGE      0.12     0.80     6.30     0  00:00        0.38
  JK-storage           STORAGE      0.11     3.00     3.80     0  00:00        0.21
  
  
  *******************
  Node Inflow Summary
  *******************
  
  -------------------------------------------------------------------------------------------------
                                  Maximum  Maximum                  Lateral       Total        Flow
                                  Lateral    Total  Time of Max      Inflow      Inflow     Balance
                                   Inflow   Inflow   Occurrence      Volume      Volume       Error
  Node                 Type           LPS      LPS  days hr:min    10^6 ltr    10^6 ltr     Percent
  -------------------------------------------------------------------------------------------------
  WS02003060           JUNCTION     16.53    26.81     0  05:43       0.476       0.608       0.313
  WS02003066           JUNCTION      0.00    10.28     0  05:18           0       0.134       0.818
  WS02003067           JUNCTION      0.00    10.28     0  05:21           0       0.138       2.957
  WS02003069           JUNCTION      0.32    27.13     0  06:21     0.00922       0.616       0.534
  WS02003072           JUNCTION      0.00    27.13     0  07:45           0       0.612       0.981
  WS02003073           JUNCTION      1.82    28.95     0  07:47      0.0524       0.659       0.713
  WS02004401           JUNCTION      0.00    10.34     0  01:37           0       0.238       4.243
  WS02004402           JUNCTION      0.00    10.30     0  04:38           0       0.228       4.558
  WS02004403           JUNCTION      0.00    10.48     0  01:25           0       0.218       4.625
  WS02004404           JUNCTION      0.00    10.34     0  04:31           0       0.209       4.003
  WS02004405           JUNCTION      0.00    10.34     0  04:35           0       0.201       6.532
  WS02004406           JUNCTION      0.00    10.30     0  04:42           0       0.188      11.765
  WS02004407           JUNCTION      0.00    10.28     0  05:23           0       0.168       0.555
  WS02004409           JUNCTION      0.00    10.28     0  05:40           0       0.168       1.276
  WS02004410           JUNCTION      0.00    10.28     0  05:14           0       0.165       2.295
  WS02004411           JUNCTION      0.00    10.30     0  04:49           0       0.162       3.155
  WS02004412           JUNCTION      0.00    10.38     0  04:41           0       0.157       4.549
  WS02004413           JUNCTION      0.00    10.50     0  04:38           0        0.15       8.797
  WS02006109           JUNCTION      0.00    10.28     0  03:01           0       0.284       3.381
  WS02006110           JUNCTION      0.00    10.28     0  03:51           0       0.275       3.024
  WS02006111           JUNCTION      0.00    10.28     0  05:07           0       0.266       0.192
  WS02006112           JUNCTION      0.00    10.28     0  05:26           0       0.265       5.464
  WS02006113           JUNCTION      0.00    10.28     0  05:13           0       0.267       0.411
  WS02006115           JUNCTION      0.00    10.58     0  02:07           0       0.251       2.627
  WS02006116           JUNCTION      0.00    10.81     0  02:07           0       0.245       3.020
  WS02006228           JUNCTION      0.00    10.31     0  00:09           0        0.29       2.095
  WS02006229           JUNCTION      0.00    10.49     0  00:19           0       0.293       1.037
  WS02006230           JUNCTION     10.28    10.28     0  00:00       0.296       0.296       0.979
  WS02006231           JUNCTION      0.00     0.00     0  00:00           0           0       0.000 ltr
  WS02006232           JUNCTION      0.00     0.00     0  00:00           0           0       0.000 ltr
  WS02006234           JUNCTION      0.00     0.00     0  00:00           0           0       0.000 ltr
  WS02006235           JUNCTION      0.00     0.00     0  00:00           0           0       0.000 ltr
  WS02006238           JUNCTION      0.00     0.00     0  00:00           0           0       0.000 ltr
  WS02006239           JUNCTION      0.00     0.00     0  00:00           0           0       0.000 ltr
  WS02006240           JUNCTION      0.00     0.00     0  00:00           0           0       0.000 ltr
  WS02006242           JUNCTION      0.00     0.00     0  00:00           0           0       0.000 ltr
  WS02006243           JUNCTION      0.00     0.00     0  00:00           0           0       0.000 ltr
  WS02006245           JUNCTION      0.00     0.00     0  00:00           0           0       0.000 ltr
  WS02006247           JUNCTION      0.00     0.00     0  00:00           0           0       0.000 ltr
  WS02006248           JUNCTION      0.00     0.00     0  00:00           0           0       0.000 ltr
  WS02006249           JUNCTION      0.00     0.00     0  00:00           0           0       0.000 ltr
  WS02006251           JUNCTION      0.00     0.00     0  00:00           0           0       0.000 ltr
  WS02006252           JUNCTION      0.00     0.00     0  00:00           0           0       0.000 ltr
  WS02006256           JUNCTION      0.00     0.00     0  00:00           0           0       0.000 ltr
  WSF200               JUNCTION      0.00    10.28     0  05:32           0       0.133       0.298
  YS02001580           JUNCTION      0.00    59.17     0  01:29           0     0.00427       0.749
  YS02001583           JUNCTION      0.00    90.57     0  01:29           0      0.0161      -3.111
  YS02001586           JUNCTION   3410.01  3410.01     0  02:25        6.66        6.67       0.014
  YS02001590           JUNCTION      0.00   317.87     0  01:43           0        2.39      -0.048
  YS02001593           JUNCTION      0.00   317.75     0  01:47           0        2.39       0.007
  YS02001596           JUNCTION      0.00   317.71     0  01:59           0        2.39      -0.002
  YS02001600           JUNCTION      0.00   317.78     0  01:43           0        2.39       0.016
  YS02001601           JUNCTION   5343.66  5661.17     0  02:25        8.73        11.1       0.007
  YS02001602           JUNCTION      0.00   511.92     0  03:06           0        3.48       0.013
  YS02001605           JUNCTION      0.00   512.05     0  03:06           0        3.19       0.019
  YS02001607           JUNCTION      0.00   512.26     0  03:06           0        3.19       0.055
  YS02001610           JUNCTION      0.00   953.00     0  02:41           0        4.92       0.049
  YS02001613           JUNCTION      0.00   616.85     0  02:41           0        3.51       0.047
  YS02001616           JUNCTION      0.00   616.95     0  02:41           0        3.51       0.010
  YS02001619           JUNCTION   5928.09  5928.09     0  02:25        10.7        12.5      -0.003
  YS02001622           JUNCTION      0.00  1053.24     0  02:24           0        7.38      -0.004
  YS02001625           JUNCTION      0.00  1505.02     0  02:39           0        8.54       0.107
  YS02001629           JUNCTION      0.00  1138.49     0  02:29           0        5.99       0.010
  YS02001633           JUNCTION   4003.07  4003.07     0  02:25        6.46        10.4       0.030
  YS02001641           JUNCTION      0.00  1344.27     0  02:59           0        7.48       0.036
  YS02001644           JUNCTION   3539.74  5291.34     0  02:25        5.63        13.9       0.021
  YS02001647           JUNCTION      0.00  1695.30     0  01:42           0        8.75       0.002
  YS02001649           JUNCTION      0.00  2572.62     0  02:25           0          13       0.002
  YS02001652           JUNCTION      0.00  2428.58     0  02:28           0        5.04      -0.037
  YS02001655           JUNCTION      0.00  2731.29     0  02:27           0        5.15       0.014
  YS02001658           JUNCTION      0.00  2783.08     0  02:27           0        5.16      -0.021
  YS02001661           JUNCTION      0.00  2783.08     0  02:27           0        5.16       0.011
  YS02001664           JUNCTION   3408.42  3408.42     0  02:25        5.26        5.26      -0.001
  YS02001745           JUNCTION   2055.78  2055.78     0  02:25        3.09        3.09       0.020
  YS02001748           JUNCTION      0.00  2055.98     0  02:25           0        3.09      -0.024
  YS02001751           JUNCTION      0.00  2056.32     0  02:25           0        3.09       0.028
  YS02001754           JUNCTION      0.00  2055.96     0  02:25           0        3.09      -0.049
  YS02001757           JUNCTION      0.00  3626.79     0  02:25           0          21      -0.002
  YS02001759           JUNCTION   2864.71  2864.71     0  02:25         4.3        6.99      -0.009
  YS02001762           JUNCTION      0.00   784.95     0  02:40           0        3.12      -0.005
  YS02001765           JUNCTION      0.00   784.55     0  02:40           0        3.12      -0.004
  YS02001767           JUNCTION      0.00   784.39     0  02:40           0        3.12      -0.009
  YS02001770           JUNCTION   4166.93  4886.80     0  02:25        6.46        6.92      -0.013
  YS02001774           JUNCTION      0.00   851.48     0  02:19           0        1.67       0.061
  YS02001779           JUNCTION      0.00   851.37     0  02:20           0        1.63      -0.005
  YS02001783           JUNCTION      0.00  1321.62     0  02:24           0        7.55      -0.001
  YS02001784           JUNCTION      0.00  1321.61     0  02:24           0        7.55      -0.000
  YS02001786           JUNCTION      0.00  1321.53     0  02:23           0        7.55       0.002
  YS02001788           JUNCTION      0.00  1321.55     0  02:23           0        7.55       0.001
  YS02001790           JUNCTION      0.00  1328.26     0  02:22           0        7.55       0.034
  YS02001791           JUNCTION      0.00  1372.81     0  02:26           0        7.55      -0.032
  YS02001793           JUNCTION      0.00  1360.84     0  02:24           0        7.55       0.002
  YS02001882           JUNCTION      0.00    46.89     0  01:30           0      0.0171       2.098
  YS02001884           JUNCTION      0.00    60.67     0  01:33           0      0.0533       3.476
  YS02001887           JUNCTION   2968.18  2968.18     0  02:25        4.38        4.42       0.085
  YS02001890           JUNCTION      0.00  2052.03     0  02:27           0        4.17       0.097
  YS02001895           JUNCTION      0.00   516.79     0  02:30           0        2.49       0.077
  YS02001898           JUNCTION      0.00   516.76     0  02:29           0        2.49      -0.045
  YS02001901           JUNCTION      0.00   516.73     0  02:30           0        2.49       0.102
  YS02001904           JUNCTION      0.00   516.91     0  02:30           0         2.5       0.082
  YS02001907           JUNCTION      0.00  4668.51     0  02:26           0        11.4       0.146
  YS02001910           JUNCTION      0.00  1992.45     0  02:32           0        7.15       0.085
  YS02001915           JUNCTION   3829.49  5051.18     0  02:25        6.16        9.16       0.003
  YS02001918           JUNCTION      0.00  1678.83     0  02:27           0         3.2      -0.016
  YS02001920           JUNCTION      0.00  1678.83     0  02:27           0         3.2       0.012
  YS02001923           JUNCTION      0.00  1678.83     0  02:27           0         3.2       0.000
  YS02001926           JUNCTION      0.00  1678.83     0  02:27           0         3.2       0.011
  YS02001929           JUNCTION   1927.14  1927.14     0  02:25        3.24        3.24       0.000
  YS02006553           JUNCTION      0.00  2159.67     0  02:26           0        4.74       0.235
  YS02006556           JUNCTION      0.00  2159.67     0  02:26           0        4.75       0.151
  YS02006558           JUNCTION   4229.62  4229.62     0  02:25        6.46        9.44       0.031
  YS02006561           JUNCTION      0.00  1321.54     0  02:23           0        7.55      -0.003
  YS02163301           JUNCTION      0.00  1138.42     0  02:29           0        5.99       0.026
  YS02163601           JUNCTION      0.00  1344.35     0  02:59           0        7.48       0.069
  YS02164001           JUNCTION      0.00  1344.32     0  02:59           0        7.48       0.030
  CC-1                 OUTFALL       0.00 16161.72     0  00:00           0        11.4       0.000
  CC-2                 OUTFALL       0.00 17045.67     0  00:00           0        11.8       0.000
  JK-1                 OUTFALL       0.00  8590.66     0  00:00           0        3.87       0.000
  JK-2                 OUTFALL       0.00  8788.77     0  00:00           0        3.94       0.000
  WSC                  OUTFALL       0.00    28.95     0  07:50           0       0.654       0.000
  CC-storage           STORAGE       0.00  3487.74     0  02:24           0        23.2      -0.259
  JK-storage           STORAGE       0.00  1374.94     0  02:24           0         7.7      -1.329
  
  
  **********************
  Node Surcharge Summary
  **********************
  
  Surcharging occurs when water rises above the top of the highest conduit.
  ---------------------------------------------------------------------
                                               Max. Height   Min. Depth
                                   Hours       Above Crown    Below Rim
  Node                 Type      Surcharged         Meters       Meters
  ---------------------------------------------------------------------
  YS02001580           JUNCTION        1.56          0.450        0.000
  YS02001583           JUNCTION        1.57          0.500        0.000
  YS02001586           JUNCTION        1.69          0.510        0.000
  YS02001590           JUNCTION        1.77          0.732        0.018
  YS02001593           JUNCTION        1.76          0.694        0.146
  YS02001596           JUNCTION        1.87          0.948        0.122
  YS02001600           JUNCTION        1.98          1.190        0.000
  YS02001601           JUNCTION        2.23          1.440        0.000
  YS02001602           JUNCTION        2.15          1.270        0.000
  YS02001605           JUNCTION        2.11          1.175        0.005
  YS02001607           JUNCTION        1.69          0.653        0.027
  YS02001610           JUNCTION        1.71          0.680        0.000
  YS02001613           JUNCTION        1.68          0.668        0.032
  YS02001616           JUNCTION        1.64          0.610        0.000
  YS02001619           JUNCTION        1.63          0.610        0.000
  YS02001622           JUNCTION        1.62          0.577        0.043
  YS02001625           JUNCTION        1.80          0.780        0.000
  YS02001629           JUNCTION        1.51          0.470        0.000
  YS02001633           JUNCTION        1.79          1.060        0.000
  YS02001641           JUNCTION        1.68          0.968        0.132
  YS02001644           JUNCTION        1.62          0.920        0.000
  YS02001647           JUNCTION        1.27          0.830        0.070
  YS02001649           JUNCTION        1.32          1.050        0.000
  YS02001652           JUNCTION        1.14          1.122        0.008
  YS02001655           JUNCTION        1.01          1.200        0.000
  YS02001658           JUNCTION        0.81          1.300        0.000
  YS02001661           JUNCTION        0.50          1.367        0.023
  YS02001664           JUNCTION        0.29          1.310        0.000
  YS02001745           JUNCTION        0.25          0.932        0.418
  YS02001748           JUNCTION        0.65          1.033        0.157
  YS02001751           JUNCTION        0.86          1.073        0.127
  YS02001754           JUNCTION        1.01          1.063        0.087
  YS02001757           JUNCTION        1.29          1.201        0.009
  YS02001759           JUNCTION        1.21          1.210        0.000
  YS02001762           JUNCTION        1.20          1.150        0.000
  YS02001765           JUNCTION        1.17          1.081        0.019
  YS02001767           JUNCTION        1.15          1.009        0.021
  YS02001770           JUNCTION        1.14          0.920        0.000
  YS02001774           JUNCTION        1.20          1.002        0.048
  YS02001779           JUNCTION        1.05          0.680        0.000
  YS02001783           JUNCTION        1.51          0.678        0.922
  YS02001784           JUNCTION        1.48          0.511        0.979
  YS02001786           JUNCTION        1.32          0.185        1.245
  YS02001882           JUNCTION        1.44          0.830        0.000
  YS02001884           JUNCTION        1.45          0.870        0.000
  YS02001887           JUNCTION        1.50          0.950        0.000
  YS02001890           JUNCTION        1.51          0.760        0.000
  YS02001895           JUNCTION        1.42          0.568        0.182
  YS02001898           JUNCTION        1.41          0.541        0.199
  YS02001901           JUNCTION        1.48          0.679        0.191
  YS02001904           JUNCTION        1.47          0.639        0.211
  YS02001907           JUNCTION        1.75          0.950        0.000
  YS02001910           JUNCTION        1.55          1.005        0.095
  YS02001915           JUNCTION        1.43          1.000        0.000
  YS02001918           JUNCTION        1.30          0.810        0.000
  YS02001920           JUNCTION        1.32          1.025        0.115
  YS02001923           JUNCTION        0.64          0.703        0.117
  YS02001926           JUNCTION        0.69          0.872        0.028
  YS02001929           JUNCTION        0.47          0.780        0.000
  YS02006553           JUNCTION        1.76          1.147        0.043
  YS02006556           JUNCTION        1.66          1.311        0.039
  YS02006558           JUNCTION        1.64          1.400        0.000
  YS02006561           JUNCTION        1.25          0.422        0.728
  YS02163301           JUNCTION        1.78          0.953        0.077
  YS02163601           JUNCTION        1.82          1.076        0.004
  YS02164001           JUNCTION        1.70          0.973        0.127
  
  
  *********************
  Node Flooding Summary
  *********************
  
  Flooding refers to all water that overflows a node, whether it ponds or not.
  --------------------------------------------------------------------------
                                                             Total   Maximum
                                 Maximum   Time of Max       Flood    Ponded
                        Hours       Rate    Occurrence      Volume     Depth
  Node                 Flooded       LPS   days hr:min    10^6 ltr    Meters
  --------------------------------------------------------------------------
  YS02001580              0.01     24.28      0  01:30       0.000     0.000
  YS02001583              0.01      6.08      0  01:30       0.000     0.000
  YS02001586              1.42   3092.44      0  02:25       4.267     0.000
  YS02001600              0.01      0.66      0  01:29       0.000     0.000
  YS02001601              1.62   5262.79      0  02:25       7.647     0.000
  YS02001602              1.35     61.87      0  01:51       0.291     0.000
  YS02001610              1.29    952.85      0  02:41       3.151     0.000
  YS02001616              0.01      0.79      0  02:41       0.000     0.000
  YS02001619              0.58   4258.03      0  02:25       3.395     0.000
  YS02001625              1.17   1505.02      0  02:39       4.622     0.000
  YS02001629              0.59    686.56      0  02:29       0.914     0.000
  YS02001633              0.25   1959.54      0  02:25       0.812     0.000
  YS02001644              0.78   5290.99      0  02:25       6.006     0.000
  YS02001649              0.21   1725.91      0  02:25       0.738     0.000
  YS02001655              0.12    302.71      0  02:27       0.109     0.000
  YS02001658              0.09    385.42      0  01:52       0.016     0.000
  YS02001664              0.08    625.10      0  02:25       0.101     0.000
  YS02001759              0.09    574.27      0  02:25       0.094     0.000
  YS02001762              0.01      0.29      0  02:21       0.000     0.000
  YS02001770              0.41   4035.28      0  02:25       2.577     0.000
  YS02001779              0.70    851.27      0  02:20       1.606     0.000
  YS02001882              0.01      0.08      0  02:20       0.000     0.000
  YS02001884              0.01      0.30      0  02:27       0.000     0.000
  YS02001887              0.12    916.10      0  02:25       0.209     0.000
  YS02001890              0.72   1535.65      0  02:23       1.676     0.000
  YS02001907              1.21   4668.51      0  02:26       8.380     0.000
  YS02001915              0.40   3058.33      0  02:25       2.011     0.000
  YS02001918              0.19    457.13      0  02:27       0.197     0.000
  YS02001929              0.08    248.31      0  02:25       0.038     0.000
  YS02006558              0.08    748.97      0  02:25       0.117     0.000
  
  
  **********************
  Storage Volume Summary
  **********************
  
  --------------------------------------------------------------------------------------------------
                         Average     Avg  Evap Exfil       Maximum     Max    Time of Max    Maximum
                          Volume    Pcnt  Pcnt  Pcnt        Volume    Pcnt     Occurrence    Outflow
  Storage Unit           1000 m3    Full  Loss  Loss       1000 m3    Full    days hr:min        LPS
  --------------------------------------------------------------------------------------------------
  CC-storage               0.337       5     0     0         2.229      35       0  00:00   32996.09
  JK-storage               0.006       2     0     0         0.151      52       0  00:00   17379.43
  
  
  ***********************
  Outfall Loading Summary
  ***********************
  
  -----------------------------------------------------------
                         Flow       Avg       Max       Total
                         Freq      Flow      Flow      Volume
  Outfall Node           Pcnt       LPS       LPS    10^6 ltr
  -----------------------------------------------------------
  CC-1                 100.00    840.42  16161.72      11.383
  CC-2                 100.00    874.26  17045.67      11.838
  JK-1                  94.90    301.72   8590.66       3.869
  JK-2                  94.93    306.89   8788.77       3.936
  WSC                   99.98     20.06     28.95       0.654
  -----------------------------------------------------------
  System                97.96   2343.35     28.95      31.680
  
  
  ********************
  Link Flow Summary
  ********************
  
  -----------------------------------------------------------------------------
                                 Maximum  Time of Max   Maximum    Max/    Max/
                                  |Flow|   Occurrence   |Veloc|    Full    Full
  Link                 Type          LPS  days hr:min     m/sec    Flow   Depth
  -----------------------------------------------------------------------------
  1                    CONDUIT     28.95     0  07:50      1.17    0.01    0.07
  WS02003060WS02003069 CONDUIT     26.81     0  06:21      0.77    0.01    0.08
  WS02003066WSF200     CONDUIT     10.28     0  05:32      0.89    0.00    0.03
  WS02003067WS02003066 CONDUIT     10.28     0  05:18      0.08    0.00    0.17
  WS02003069WS02003072 CONDUIT     27.13     0  07:45      0.62    0.01    0.10
  WS02003072WS02003073 CONDUIT     27.13     0  07:47      0.49    0.06    0.10
  WS02004401WS02004402 CONDUIT     10.30     0  04:38      0.34    0.01    0.38
  WS02004402WS02004403 CONDUIT     10.48     0  01:25      0.38    0.02    0.41
  WS02004403WS02004404 CONDUIT     10.34     0  04:31      0.37    0.01    0.47
  WS02004404WS02004405 CONDUIT     10.34     0  04:35      0.30    0.10    0.51
  WS02004405WS02004406 CONDUIT     10.30     0  04:42      0.30    0.02    0.52
  WS02004406WS02004407 CONDUIT     10.28     0  05:23      0.06    0.00    0.29
  WS02004407WS02004409 CONDUIT     10.28     0  05:40      0.50    0.00    0.08
  WS02004409WS02004410 CONDUIT     10.28     0  05:14      0.33    0.01    0.14
  WS02004410WS02004411 CONDUIT     10.30     0  04:49      0.31    0.01    0.18
  WS02004411WS02004412 CONDUIT     10.38     0  04:41      0.35    0.01    0.22
  WS02004412WS02004413 CONDUIT     10.50     0  04:38      0.28    0.01    0.32
  WS02004413WS02003067 CONDUIT     10.28     0  05:21      0.08    0.00    0.23
  WS02006109WS02006110 CONDUIT     10.28     0  03:51      0.20    0.02    0.38
  WS02006110WS02006113 CONDUIT     10.28     0  05:13      0.09    0.01    0.27
  WS02006111WS02006112 CONDUIT     10.28     0  05:26      0.65    0.00    0.31
  WS02006112WS02006115 CONDUIT     10.58     0  02:07      0.09    0.01    0.34
  WS02006113WS02006111 CONDUIT     10.28     0  05:07      0.65    0.01    0.07
  WS02006115WS02006116 CONDUIT     10.81     0  02:07      0.44    0.01    0.24
  WS02006116WS02004401 CONDUIT     10.34     0  01:37      0.34    0.01    0.34
  WS02006228WS02006109 CONDUIT     10.28     0  03:01      0.32    0.04    0.39
  WS02006229WS02006228 CONDUIT     10.31     0  00:09      0.42    0.03    0.34
  WS02006230WS02006229 CONDUIT     10.49     0  00:19      0.36    0.23    0.31
  WS02006231WS02006230 CONDUIT      0.00     0  00:00      0.00    0.00    0.00
  WS02006232WS02006231 CONDUIT      0.00     0  00:00      0.00    0.00    0.00
  WS02006234WS02006232 CONDUIT      0.00     0  00:00      0.00    0.00    0.00
  WS02006235WS02006234 CONDUIT      0.00     0  00:00      0.00    0.00    0.00
  WS02006238WS02006235 CONDUIT      0.00     0  00:00      0.00    0.00    0.00
  WS02006239WS02006238 CONDUIT      0.00     0  00:00      0.00    0.00    0.00
  WS02006240WS02006239 CONDUIT      0.00     0  00:00      0.00    0.00    0.00
  WS02006242WS02006240 CONDUIT      0.00     0  00:00      0.00    0.00    0.00
  WS02006243WS02006242 CONDUIT      0.00     0  00:00      0.00    0.00    0.00
  WS02006245WS02006243 CONDUIT      0.00     0  00:00      0.00    0.00    0.00
  WS02006247WS02006245 CONDUIT      0.00     0  00:00      0.00    0.00    0.00
  WS02006248WS02006247 CONDUIT      0.00     0  00:00      0.00    0.00    0.00
  WS02006249WS02006248 CONDUIT      0.00     0  00:00      0.00    0.00    0.00
  WS02006251WS02006249 CONDUIT      0.00     0  00:00      0.00    0.00    0.00
  WS02006252WS02006251 CONDUIT      0.00     0  00:00      0.00    0.00    0.00
  WS02006256WS02006235 CONDUIT      0.00     0  00:00      0.00    0.00    0.00
  WSF200WS02003060     CONDUIT     10.28     0  05:43      0.43    0.00    0.05
  YS02001580YS02001583 CONDUIT     59.17     0  01:29      0.47    0.23    1.00
  YS02001583YS02001586 CONDUIT     89.89     0  01:29      0.38    0.14    1.00
  YS02001586YS02001590 CONDUIT    317.87     0  01:43      1.32    0.56    1.00
  YS02001590YS02001593 CONDUIT    317.75     0  01:47      1.19    1.99    1.00
  YS02001593YS02001596 CONDUIT    317.71     0  01:59      1.88    0.50    1.00
  YS02001596YS02001600 CONDUIT    317.78     0  01:43      1.36    0.62    1.00
  YS02001600YS02001601 CONDUIT    317.90     0  01:43      1.12    0.55    1.00
  YS02001601YS02001602 CONDUIT    511.92     0  03:06      1.81    1.85    1.00
  YS02001602YS02001605 CONDUIT    512.05     0  03:06      1.81   10.84    1.00
  YS02001605YS02001607 CONDUIT    512.26     0  03:06      1.81    2.81    1.00
  YS02001607YS02001610 CONDUIT    512.62     0  03:06      0.65    0.49    1.00
  YS02001610YS02001613 CONDUIT    616.88     0  02:41      0.79    0.71    1.00
  YS02001613YS02001616 CONDUIT    616.85     0  02:41      0.79    0.53    1.00
  YS02001616YS02001619 CONDUIT    616.95     0  02:41      0.79    1.07    1.00
  YS02001619YS02001622 CONDUIT   1053.24     0  02:24      1.38    1.55    1.00
  YS02001622YS02001625 CONDUIT   1053.24     0  02:24      1.34    0.56    1.00
  YS02001625YS02001629 CONDUIT   1033.95     0  02:59      1.32    0.49    1.00
  YS02001629YS02163301 CONDUIT   1138.49     0  02:29      1.45    1.40    1.00
  YS02001633YS02163601 CONDUIT   1344.35     0  02:59      1.71    1.41    1.00
  YS02001641YS02001644 CONDUIT   1344.21     0  02:59      1.71    4.35    1.00
  YS02001644YS02001647 CONDUIT   1695.30     0  01:42      2.17    1.00    1.00
  YS02001647YS02001649 CONDUIT   1710.53     0  01:41      2.27    0.90    1.00
  YS02001649YS02001757 CONDUIT   1966.82     0  01:41      2.51    1.19    1.00
  YS02001652YS02001649 CONDUIT   2428.58     0  02:28      3.09    1.20    1.00
  YS02001655YS02001652 CONDUIT   2428.58     0  02:28      3.09    1.18    1.00
  YS02001658YS02001655 CONDUIT   2731.29     0  02:27      3.48    1.16    1.00
  YS02001661YS02001658 CONDUIT   2783.08     0  02:27      3.54    1.09    1.00
  YS02001664YS02001661 CONDUIT   2783.08     0  02:27      3.54    0.87    1.00
  YS02001745YS02001748 CONDUIT   2055.98     0  02:25      2.62    0.79    1.00
  YS02001748YS02001751 CONDUIT   2056.32     0  02:25      2.62    1.04    1.00
  YS02001751YS02001754 CONDUIT   2055.96     0  02:25      2.62    0.99    1.00
  YS02001754YS02001757 CONDUIT   2056.17     0  02:25      2.62    0.83    1.00
  YS02001757CaochengTiaoxuchi CONDUIT   3487.74     0  02:24      7.02    1.51    0.60
  YS02001759YS02001757 CONDUIT   1667.85     0  02:26      2.12    1.19    1.00
  YS02001762YS02001759 CONDUIT    785.28     0  02:40      1.00    0.90    1.00
  YS02001765YS02001762 CONDUIT    784.95     0  02:40      1.00    0.74    1.00
  YS02001767YS02001765 CONDUIT    784.55     0  02:40      1.00    0.99    1.00
  YS02001770YS02001767 CONDUIT    784.39     0  02:40      1.00    3.11    1.00
  YS02001774YS02001770 CONDUIT    851.48     0  02:19      1.08    0.54    1.00
  YS02001779YS02001774 CONDUIT    851.37     0  02:20      1.08    0.43    1.00
  YS02001783YS02001784 CONDUIT   1321.61     0  02:24      2.63    1.82    1.00
  YS02001784YS02001785 CONDUIT   1321.53     0  02:23      2.63    3.08    1.00
  YS02001786YS02001788 CONDUIT   1321.55     0  02:23      2.74    2.55    0.92
  YS02001788YS02001790 CONDUIT   1328.26     0  02:22      2.90    0.98    0.87
  YS02001790YS02001791 CONDUIT   1372.81     0  02:26      3.53    1.49    0.73
  YS02001791YS02001793 CONDUIT   1360.84     0  02:24      6.83    0.58    0.43
  YS02001793JiankangQianchi CONDUIT   1374.94     0  02:24     10.90    0.11    0.50
  YS02001882YS02001884 CONDUIT     46.89     0  01:30      0.30    0.05    1.00
  YS02001884YS02001887 CONDUIT     50.58     0  01:18      0.25    0.07    1.00
  YS02001887YS02001890 CONDUIT   2052.03     0  02:27      2.61    3.51    1.00
  YS02001890YS02001895 CONDUIT    516.79     0  02:30      0.66    0.24    1.00
  YS02001895YS02001898 CONDUIT    516.76     0  02:29      0.66    0.90    1.00
  YS02001898YS02001901 CONDUIT    516.73     0  02:30      0.66    0.33    1.00
  YS02001901YS02001904 CONDUIT    516.91     0  02:30      0.66    0.80    1.00
  YS02001904YS02001907 CONDUIT    516.78     0  02:20      0.66    0.18    1.00
  YS02001907YS02006553 CONDUIT   2159.67     0  02:26      2.40    2.54    1.00
  YS02001910YS02001907 CONDUIT   1992.45     0  02:32      2.54    1.12    1.00
  YS02001915YS02001910 CONDUIT   1992.45     0  02:32      2.54    0.99    1.00
  YS02001918YS02001915 CONDUIT   1221.69     0  02:30      1.56    0.67    1.00
  YS02001920YS02001918 CONDUIT   1678.83     0  02:27      2.14    1.62    1.00
  YS02001923YS02001920 CONDUIT   1678.83     0  02:27      2.14    0.75    1.00
  YS02001926YS02001923 CONDUIT   1678.83     0  02:27      2.14    2.40    1.00
  YS02001929YS02001926 CONDUIT   1678.83     0  02:27      2.14    0.80    1.00
  YS02006553YS02006556 CONDUIT   2159.67     0  02:26      2.75    1.85    1.00
  YS02006556YS02006558 CONDUIT   2159.67     0  02:26      2.75    1.71    1.00
  YS02006558YS02006561 CONDUIT   1321.54     0  02:23      4.67    2.92    1.00
  YS02006561YS02001783 CONDUIT   1321.62     0  02:24      2.63    0.68    1.00
  YS02163301YS02001633 CONDUIT   1138.42     0  02:29      1.45    1.07    1.00
  YS02163601YS02164001 CONDUIT   1344.32     0  02:59      1.71    1.19    1.00
  YS02164001YS02001641 CONDUIT   1344.27     0  02:59      1.71    1.84    1.00
  2                    CONDUIT  16161.72     0  00:00     26.41    0.88    0.73
  3                    CONDUIT  17045.67     0  00:00     27.65    0.89    0.73
  4                    CONDUIT      0.00     0  00:00      0.00    0.00    0.40
  5                    CONDUIT   8590.66     0  00:00     10.94    1.24    1.00
  6                    CONDUIT   8788.77     0  00:00     11.19    1.25    1.00
  7                    CONDUIT      0.00     0  00:00      0.00    0.00    0.50
  
  
  ***************************
  Flow Classification Summary
  ***************************
  
  -------------------------------------------------------------------------------------
                      Adjusted    ---------- Fraction of Time in Flow Class ---------- 
                       /Actual         Up    Down  Sub   Sup   Up    Down  Norm  Inlet 
  Conduit               Length    Dry  Dry   Dry   Crit  Crit  Crit  Crit  Ltd   Ctrl  
  -------------------------------------------------------------------------------------
  1                       1.00   0.00  0.00  0.00  0.00  1.00  0.00  0.00  0.92  0.00
  WS02003060WS02003069    1.00   0.00  0.00  0.00  0.98  0.02  0.00  0.00  0.99  0.00
  WS02003066WSF200        1.00   0.78  0.00  0.00  0.00  0.22  0.00  0.00  0.45  0.00
  WS02003067WS02003066    1.00   0.75  0.03  0.00  0.23  0.00  0.00  0.00  0.00  0.00
  WS02003069WS02003072    1.00   0.00  0.00  0.00  0.99  0.01  0.00  0.00  0.99  0.00
  WS02003072WS02003073    1.00   0.00  0.00  0.00  0.00  0.00  0.00  1.00  0.00  0.00
  WS02004401WS02004402    1.00   0.10  0.00  0.00  0.90  0.00  0.00  0.00  0.05  0.00
  WS02004402WS02004403    1.00   0.10  0.00  0.00  0.90  0.00  0.00  0.00  0.00  0.00
  WS02004403WS02004404    1.00   0.10  0.00  0.00  0.90  0.00  0.00  0.00  0.03  0.00
  WS02004404WS02004405    1.00   0.10  0.00  0.00  0.90  0.00  0.00  0.00  0.00  0.00
  WS02004405WS02004406    1.00   0.10  0.00  0.00  0.90  0.00  0.00  0.00  0.00  0.00
  WS02004406WS02004407    1.00   0.10  0.48  0.00  0.41  0.00  0.00  0.00  0.00  0.00
  WS02004407WS02004409    1.00   0.59  0.00  0.00  0.41  0.00  0.00  0.00  0.61  0.00
  WS02004409WS02004410    1.00   0.59  0.00  0.00  0.41  0.00  0.00  0.00  0.05  0.00
  WS02004410WS02004411    1.00   0.59  0.00  0.00  0.41  0.00  0.00  0.00  0.05  0.00
  WS02004411WS02004412    1.00   0.60  0.00  0.00  0.40  0.00  0.00  0.00  0.00  0.00
  WS02004412WS02004413    1.00   0.60  0.00  0.00  0.40  0.00  0.00  0.00  0.05  0.00
  WS02004413WS02003067    1.00   0.61  0.14  0.00  0.00  0.00  0.25  0.00  0.00  0.00
  WS02006109WS02006110    1.00   0.01  0.02  0.00  0.96  0.00  0.01  0.00  0.00  0.00
  WS02006110WS02006113    1.00   0.03  0.04  0.00  0.93  0.00  0.00  0.00  0.00  0.00
  WS02006111WS02006112    1.00   0.08  0.00  0.00  0.92  0.00  0.00  0.00  0.91  0.00
  WS02006112WS02006115    1.00   0.08  0.02  0.00  0.90  0.00  0.00  0.00  0.00  0.00
  WS02006113WS02006111    1.00   0.07  0.00  0.00  0.02  0.91  0.00  0.00  0.00  0.00
  WS02006115WS02006116    1.00   0.09  0.00  0.00  0.72  0.00  0.00  0.18  0.01  0.00
  WS02006116WS02004401    1.00   0.09  0.00  0.00  0.91  0.00  0.00  0.00  0.01  0.00
  WS02006228WS02006109    1.00   0.00  0.00  0.00  0.97  0.00  0.00  0.02  0.00  0.00
  WS02006229WS02006228    1.00   0.00  0.00  0.00  0.97  0.00  0.00  0.03  0.00  0.00
  WS02006230WS02006229    1.00   0.00  0.00  0.00  0.95  0.00  0.00  0.05  0.00  0.00
  WS02006231WS02006230    1.00   1.00  0.00  0.00  0.00  0.00  0.00  0.00  0.00  0.00
  WS02006232WS02006231    1.00   1.00  0.00  0.00  0.00  0.00  0.00  0.00  0.00  0.00
  WS02006234WS02006232    1.00   1.00  0.00  0.00  0.00  0.00  0.00  0.00  0.00  0.00
  WS02006235WS02006234    1.00   1.00  0.00  0.00  0.00  0.00  0.00  0.00  0.00  0.00
  WS02006238WS02006235    1.00   1.00  0.00  0.00  0.00  0.00  0.00  0.00  0.00  0.00
  WS02006239WS02006238    1.00   1.00  0.00  0.00  0.00  0.00  0.00  0.00  0.00  0.00
  WS02006240WS02006239    1.00   1.00  0.00  0.00  0.00  0.00  0.00  0.00  0.00  0.00
  WS02006242WS02006240    1.00   1.00  0.00  0.00  0.00  0.00  0.00  0.00  0.00  0.00
  WS02006243WS02006242    1.00   1.00  0.00  0.00  0.00  0.00  0.00  0.00  0.00  0.00
  WS02006245WS02006243    1.00   1.00  0.00  0.00  0.00  0.00  0.00  0.00  0.00  0.00
  WS02006247WS02006245    1.00   1.00  0.00  0.00  0.00  0.00  0.00  0.00  0.00  0.00
  WS02006248WS02006247    1.00   1.00  0.00  0.00  0.00  0.00  0.00  0.00  0.00  0.00
  WS02006249WS02006248    1.00   1.00  0.00  0.00  0.00  0.00  0.00  0.00  0.00  0.00
  WS02006251WS02006249    1.00   1.00  0.00  0.00  0.00  0.00  0.00  0.00  0.00  0.00
  WS02006252WS02006251    1.00   1.00  0.00  0.00  0.00  0.00  0.00  0.00  0.00  0.00
  WS02006256WS02006235    1.00   1.00  0.00  0.00  0.00  0.00  0.00  0.00  0.00  0.00
  WSF200WS02003060        1.00   0.00  0.78  0.00  0.22  0.00  0.00  0.00  0.46  0.00
  YS02001580YS02001583    1.00   0.14  0.26  0.00  0.59  0.00  0.00  0.00  0.60  0.00
  YS02001583YS02001586    1.00   0.19  0.17  0.00  0.64  0.00  0.00  0.00  0.60  0.00
  YS02001586YS02001590    1.00   0.10  0.00  0.00  0.76  0.02  0.00  0.13  0.33  0.00
  YS02001590YS02001593    1.00   0.10  0.00  0.00  0.50  0.00  0.40  0.00  0.00  0.00
  YS02001593YS02001596    1.00   0.10  0.00  0.00  0.52  0.01  0.00  0.38  0.01  0.00
  YS02001596YS02001600    1.00   0.10  0.00  0.00  0.57  0.01  0.00  0.32  0.02  0.00
  YS02001600YS02001601    1.00   0.10  0.00  0.00  0.90  0.00  0.00  0.00  0.53  0.00
  YS02001601YS02001602    1.00   0.10  0.00  0.00  0.90  0.00  0.00  0.00  0.00  0.00
  YS02001602YS02001605    1.00   0.10  0.00  0.00  0.90  0.00  0.00  0.00  0.00  0.00
  YS02001605YS02001607    1.00   0.10  0.00  0.00  0.90  0.00  0.00  0.00  0.00  0.00
  YS02001607YS02001610    1.00   0.10  0.00  0.00  0.90  0.00  0.00  0.00  0.00  0.00
  YS02001610YS02001613    1.00   0.10  0.00  0.00  0.90  0.00  0.00  0.00  0.00  0.00
  YS02001613YS02001616    1.00   0.10  0.00  0.00  0.90  0.00  0.00  0.00  0.00  0.00
  YS02001616YS02001619    1.00   0.10  0.00  0.00  0.90  0.00  0.00  0.00  0.00  0.00
  YS02001619YS02001622    1.00   0.10  0.00  0.00  0.90  0.00  0.00  0.00  0.24  0.00
  YS02001622YS02001625    1.00   0.10  0.00  0.00  0.90  0.00  0.00  0.00  0.01  0.00
  YS02001625YS02001629    1.00   0.10  0.01  0.00  0.53  0.00  0.36  0.00  0.00  0.00
  YS02001629YS02163301    1.00   0.10  0.00  0.00  0.90  0.00  0.00  0.00  0.00  0.00
  YS02001633YS02163601    1.00   0.10  0.00  0.00  0.90  0.00  0.00  0.00  0.00  0.00
  YS02001641YS02001644    1.00   0.10  0.00  0.00  0.90  0.00  0.00  0.00  0.00  0.00
  YS02001644YS02001647    1.00   0.10  0.01  0.00  0.90  0.00  0.00  0.00  0.00  0.00
  YS02001647YS02001649    1.00   0.10  0.00  0.00  0.62  0.28  0.00  0.00  0.52  0.00
  YS02001649YS02001757    1.00   0.02  0.08  0.00  0.66  0.24  0.00  0.00  0.63  0.00
  YS02001652YS02001649    1.00   0.10  0.00  0.00  0.89  0.01  0.00  0.00  0.54  0.00
  YS02001655YS02001652    1.00   0.10  0.00  0.00  0.57  0.01  0.00  0.32  0.07  0.00
  YS02001658YS02001655    1.00   0.10  0.00  0.00  0.68  0.22  0.00  0.00  0.64  0.00
  YS02001661YS02001658    1.00   0.10  0.00  0.00  0.50  0.40  0.00  0.00  0.65  0.00
  YS02001664YS02001661    1.00   0.10  0.00  0.00  0.66  0.24  0.00  0.00  0.79  0.00
  YS02001745YS02001748    1.00   0.10  0.00  0.00  0.32  0.02  0.00  0.57  0.03  0.00
  YS02001748YS02001751    1.00   0.10  0.00  0.00  0.70  0.21  0.00  0.00  0.63  0.00
  YS02001751YS02001754    1.00   0.10  0.00  0.00  0.50  0.01  0.00  0.39  0.05  0.00
  YS02001754YS02001757    1.00   0.02  0.07  0.00  0.90  0.00  0.00  0.00  0.62  0.00
  YS02001757CaochengTiaoxuchi    1.00   0.00  0.02  0.00  0.08  0.90  0.00  0.00  0.15  0.00
  YS02001759YS02001757    1.00   0.02  0.07  0.00  0.90  0.00  0.00  0.00  0.45  0.00
  YS02001762YS02001759    1.00   0.10  0.00  0.00  0.90  0.00  0.00  0.00  0.03  0.00
  YS02001765YS02001762    1.00   0.10  0.00  0.00  0.90  0.00  0.00  0.00  0.54  0.00
  YS02001767YS02001765    1.00   0.10  0.00  0.00  0.90  0.00  0.00  0.00  0.00  0.00
  YS02001770YS02001767    1.00   0.10  0.00  0.00  0.90  0.00  0.00  0.00  0.00  0.00
  YS02001774YS02001770    1.00   0.10  0.00  0.00  0.82  0.00  0.09  0.00  0.01  0.00
  YS02001779YS02001774    1.00   0.10  0.26  0.00  0.64  0.00  0.00  0.00  0.58  0.00
  YS02001783YS02001784    1.00   0.11  0.00  0.00  0.89  0.00  0.00  0.00  0.53  0.00
  YS02001784YS02001785    1.00   0.11  0.00  0.00  0.89  0.00  0.00  0.00  0.34  0.00
  YS02001786YS02001788    1.00   0.11  0.00  0.00  0.68  0.21  0.00  0.00  0.00  0.00
  YS02001788YS02001790    1.00   0.11  0.00  0.00  0.16  0.73  0.00  0.00  0.59  0.00
  YS02001790YS02001791    1.00   0.11  0.00  0.00  0.00  0.89  0.00  0.00  0.10  0.00
  YS02001791YS02001793    1.00   0.11  0.00  0.00  0.00  0.89  0.00  0.00  0.01  0.00
  YS02001793JiankangQianchi    1.00   0.00  0.11  0.00  0.00  0.89  0.00  0.00  0.07  0.00
  YS02001882YS02001884    1.00   0.10  0.00  0.00  0.90  0.00  0.00  0.00  0.00  0.00
  YS02001884YS02001887    1.00   0.10  0.00  0.00  0.90  0.00  0.00  0.00  0.00  0.00
  YS02001887YS02001890    1.00   0.10  0.00  0.00  0.90  0.00  0.00  0.00  0.00  0.00
  YS02001890YS02001895    1.00   0.10  0.01  0.00  0.90  0.00  0.00  0.00  0.00  0.00
  YS02001895YS02001898    1.00   0.10  0.00  0.00  0.89  0.00  0.01  0.00  0.00  0.00
  YS02001898YS02001901    1.00   0.10  0.00  0.00  0.90  0.00  0.00  0.00  0.00  0.00
  YS02001901YS02001904    1.00   0.10  0.00  0.00  0.90  0.00  0.00  0.00  0.00  0.00
  YS02001904YS02001907    1.00   0.10  0.01  0.00  0.90  0.00  0.00  0.00  0.00  0.00
  YS02001907YS02006553    1.00   0.10  0.00  0.00  0.90  0.00  0.00  0.00  0.00  0.00
  YS02001910YS02001907    1.00   0.10  0.00  0.00  0.90  0.00  0.00  0.00  0.01  0.00
  YS02001915YS02001910    1.00   0.10  0.00  0.00  0.90  0.01  0.00  0.00  0.01  0.00
  YS02001918YS02001915    1.00   0.10  0.01  0.00  0.90  0.00  0.00  0.00  0.63  0.00
  YS02001920YS02001918    1.00   0.10  0.00  0.00  0.90  0.00  0.00  0.00  0.00  0.00
  YS02001923YS02001920    1.00   0.10  0.00  0.00  0.90  0.00  0.00  0.00  0.66  0.00
  YS02001926YS02001923    1.00   0.10  0.00  0.00  0.40  0.00  0.50  0.00  0.00  0.00
  YS02001929YS02001926    1.00   0.10  0.00  0.00  0.90  0.00  0.00  0.00  0.70  0.00
  YS02006553YS02006556    1.00   0.10  0.00  0.00  0.90  0.00  0.00  0.00  0.00  0.00
  YS02006556YS02006558    1.00   0.10  0.00  0.00  0.90  0.00  0.00  0.00  0.00  0.00
  YS02006558YS02006561    1.00   0.11  0.00  0.00  0.38  0.51  0.00  0.00  0.12  0.00
  YS02006561YS02001783    1.00   0.11  0.00  0.00  0.50  0.40  0.00  0.00  0.61  0.00
  YS02163301YS02001633    1.00   0.10  0.00  0.00  0.90  0.00  0.00  0.00  0.00  0.00
  YS02163601YS02164001    1.00   0.10  0.00  0.00  0.90  0.00  0.00  0.00  0.00  0.00
  YS02164001YS02001641    1.00   0.10  0.00  0.00  0.90  0.00  0.00  0.00  0.00  0.00
  2                       1.00   0.00  0.00  0.00  0.00  1.00  0.00  0.00  0.10  0.00
  3                       1.00   0.00  0.00  0.00  0.00  1.00  0.00  0.00  0.07  0.00
  4                       1.00   0.00  1.00  0.00  0.00  0.00  0.00  0.00  0.00  0.00
  5                       1.00   0.00  0.00  0.00  0.03  0.97  0.00  0.00  0.32  0.00
  6                       1.00   0.00  0.00  0.00  0.03  0.97  0.00  0.00  0.33  0.00
  7                       1.00   0.00  1.00  0.00  0.00  0.00  0.00  0.00  0.00  0.00
  
  
  *************************
  Conduit Surcharge Summary
  *************************
  
  ----------------------------------------------------------------------------
                                                           Hours        Hours 
                         --------- Hours Full --------   Above Full   Capacity
  Conduit                Both Ends  Upstream  Dnstream   Normal Flow   Limited
  ----------------------------------------------------------------------------
  YS02001580YS02001583        1.56      1.56      1.61      0.01         0.01
  YS02001583YS02001586        1.57      1.57      1.69      0.01         0.01
  YS02001586YS02001590        1.70      1.70      1.77      0.01         0.01
  YS02001590YS02001593        1.76      1.76      1.79      1.82         0.01
  YS02001593YS02001596        1.78      1.78      1.87      0.01         0.01
  YS02001596YS02001600        1.92      1.92      1.98      0.01         0.01
  YS02001600YS02001601        2.03      2.03      2.23      0.01         0.01
  YS02001601YS02001602        2.15      2.15      2.26      2.01         0.01
  YS02001602YS02001605        2.11      2.11      2.15      2.91         0.01
  YS02001605YS02001607        2.07      2.11      2.07      2.20         2.07
  YS02001607YS02001610        1.69      1.69      1.71      0.01         0.01
  YS02001610YS02001613        1.68      1.68      1.71      0.01         0.01
  YS02001613YS02001616        1.64      1.64      1.68      0.01         0.01
  YS02001616YS02001619        1.63      1.63      1.64      0.59         0.60
  YS02001619YS02001622        1.62      1.63      1.62      1.79         1.61
  YS02001622YS02001625        1.62      1.62      1.80      0.01         0.01
  YS02001625YS02001629        1.51      1.51      1.80      0.01         0.01
  YS02001629YS02163301        1.77      1.77      1.78      0.89         0.54
  YS02001633YS02163601        1.79      1.79      1.82      0.74         0.74
  YS02001641YS02001644        1.62      1.68      1.62      2.25         1.62
  YS02001644YS02001647        1.27      1.27      1.62      0.01         0.01
  YS02001647YS02001649        1.27      1.27      1.32      0.01         0.01
  YS02001649YS02001757        1.29      1.32      1.29      0.81         0.57
  YS02001652YS02001649        1.16      1.16      1.32      0.18         0.17
  YS02001655YS02001652        1.00      1.00      1.14      0.17         0.17
  YS02001658YS02001655        0.81      0.81      1.00      0.13         0.13
  YS02001661YS02001658        0.50      0.50      0.81      0.10         0.10
  YS02001664YS02001661        0.29      0.29      0.57      0.01         0.01
  YS02001745YS02001748        0.25      0.25      0.65      0.01         0.01
  YS02001748YS02001751        0.74      0.74      0.86      0.03         0.03
  YS02001751YS02001754        0.86      0.86      1.01      0.01         0.01
  YS02001754YS02001757        1.05      1.05      1.29      0.01         0.01
  YS02001757CaochengTiaoxuchi        0.01      1.29      0.01      1.49         0.01
  YS02001759YS02001757        1.21      1.21      1.29      0.28         0.29
  YS02001762YS02001759        1.20      1.20      1.21      0.01         0.01
  YS02001765YS02001762        1.17      1.17      1.20      0.01         0.01
  YS02001767YS02001765        1.15      1.15      1.17      0.01         0.04
  YS02001770YS02001767        1.15      1.16      1.15      1.50         0.86
  YS02001774YS02001770        1.14      1.14      1.20      0.01         0.01
  YS02001779YS02001774        1.05      1.05      1.20      0.01         0.01
  YS02001783YS02001784        1.48      1.51      1.48      1.69         1.48
  YS02001784YS02001785        1.32      1.48      1.32      1.83         1.32
  YS02001786YS02001788        0.01      1.32      0.01      1.77         0.01
  YS02001790YS02001791        0.01      0.01      0.01      1.46         0.01
  YS02001882YS02001884        1.44      1.44      1.45      0.01         0.01
  YS02001884YS02001887        1.48      1.48      1.50      0.01         0.01
  YS02001887YS02001890        1.51      1.51      1.53      0.62         0.01
  YS02001890YS02001895        1.42      1.42      1.55      0.01         0.01
  YS02001895YS02001898        1.41      1.41      1.42      0.01         0.01
  YS02001898YS02001901        1.42      1.42      1.48      0.01         0.01
  YS02001901YS02001904        1.47      1.47      1.48      0.01         0.01
  YS02001904YS02001907        1.47      1.47      1.76      0.01         0.01
  YS02001907YS02006553        1.83      1.83      1.87      0.24         0.24
  YS02001910YS02001907        1.55      1.55      1.75      0.45         0.45
  YS02001915YS02001910        1.43      1.43      1.55      0.01         0.01
  YS02001918YS02001915        1.30      1.30      1.43      0.01         0.01
  YS02001920YS02001918        1.30      1.30      1.32      0.23         0.01
  YS02001923YS02001920        1.23      1.23      1.32      0.01         0.01
  YS02001926YS02001923        0.64      0.64      0.69      0.39         0.01
  YS02001929YS02001926        0.47      0.47      0.69      0.01         0.01
  YS02006553YS02006556        1.66      1.66      1.76      0.19         0.19
  YS02006556YS02006558        1.72      1.72      1.77      0.17         0.01
  YS02006558YS02006561        1.35      1.64      1.35      1.81         1.35
  YS02006561YS02001783        1.25      1.25      1.51      0.01         0.01
  YS02163301YS02001633        1.78      1.78      1.81      0.26         0.01
  YS02163601YS02164001        1.70      1.70      1.82      0.51         0.01
  YS02164001YS02001641        1.68      1.70      1.68      1.38         1.18
  5                           0.01      0.01      0.01      0.01         0.01
  6                           0.01      0.01      0.01      0.01         0.01
  

  Analysis begun on:  Thu Sep  7 11:15:46 2023
  Analysis ended on:  Thu Sep  7 11:16:12 2023
  Total elapsed time: 00:00:26