
  OWA STORM WATER MANAGEMENT MODEL - VERSION v5.1.14 (OWA 2022-07-31)
  --------------------------------------------------------------

  WARNING 04: minimum elevation drop used for Conduit WS02004404WS02004405
  WARNING 03: negative offset ignored for Link YS02001904YS02001907
  
  *********************************************************
  NOTE: The summary statistics displayed in this report are
  based on results found at every computational time step,  
  not just on results from each reporting time step.
  *********************************************************
  
  ****************
  Analysis Options
  ****************
  Flow Units ............... LPS
  Process Models:
    Rainfall/Runoff ........ YES
    RDII ................... NO
    Snowmelt ............... NO
    Groundwater ............ NO
    Flow Routing ........... YES
    Ponding Allowed ........ NO
    Water Quality .......... NO
  Infiltration Method ...... HORTON
  Flow Routing Method ...... DYNWAVE
  Surcharge Method ......... EXTRAN
  Starting Date ............ 08/28/2015 08:00:00
  Ending Date .............. 08/28/2015 16:00:00
  Antecedent Dry Days ...... 8.0
  Report Time Step ......... 00:01:00
  Wet Time Step ............ 00:01:00
  Dry Time Step ............ 00:01:00
  Routing Time Step ........ 30.00 sec
  Variable Time Step ....... YES
  Maximum Trials ........... 8
  Number of Threads ........ 4
  Head Tolerance ........... 0.001500 m
  
  
  **************************        Volume         Depth
  Runoff Quantity Continuity     hectare-m            mm
  **************************     ---------       -------
  Total Precipitation ......         2.696        81.291
  Evaporation Loss .........         0.000         0.000
  Infiltration Loss ........         0.101         3.036
  Surface Runoff ...........         2.563        77.283
  Final Storage ............         0.033         0.995
  Continuity Error (%) .....        -0.028
  
  
  **************************        Volume        Volume
  Flow Routing Continuity        hectare-m      10^6 ltr
  **************************     ---------     ---------
  Dry Weather Inflow .......         0.000         0.000
  Wet Weather Inflow .......         2.563        25.629
  Groundwater Inflow .......         0.000         0.000
  RDII Inflow ..............         0.000         0.000
  External Inflow ..........         0.083         0.834
  External Outflow .........         2.045        20.448
  Flooding Loss ............         0.829         8.285
  Evaporation Loss .........         0.000         0.000
  Exfiltration Loss ........         0.000         0.000
  Initial Stored Volume ....         0.248         2.479
  Final Stored Volume ......         0.032         0.317
  Continuity Error (%) .....        -0.374
  
  
  *************************
  Highest Continuity Errors
  *************************
  Node YS02001583 (-13.46%)
  Node WS02004406 (10.53%)
  Node WS02004413 (8.08%)
  Node WS02004405 (6.13%)
  Node WS02006112 (5.18%)
  
  
  ***************************
  Time-Step Critical Elements
  ***************************
  Link 3 (97.95%)
  
  
  ********************************
  Highest Flow Instability Indexes
  ********************************
  Link YS02006558YS02006561 (12)
  Link YS02001790YS02001791 (8)
  Link YS02001882YS02001884 (7)
  Link YS02001884YS02001887 (6)
  Link YS02006556YS02006558 (6)
  
  
  *************************
  Routing Time Step Summary
  *************************
  Minimum Time Step           :     0.01 sec
  Average Time Step           :     1.87 sec
  Maximum Time Step           :     5.44 sec
  Percent in Steady State     :     0.00
  Average Iterations per Step :     2.41
  Percent Not Converging      :     4.21
  
  
  ***************************
  Subcatchment Runoff Summary
  ***************************
  
  ------------------------------------------------------------------------------------------------------------------------------
                            Total      Total      Total      Total     Imperv       Perv      Total       Total     Peak  Runoff
                           Precip      Runon       Evap      Infil     Runoff     Runoff     Runoff      Runoff   Runoff   Coeff
  Subcatchment                 mm         mm         mm         mm         mm         mm         mm    10^6 ltr      LPS
  ------------------------------------------------------------------------------------------------------------------------------
  sub60                     81.29       0.00       0.00       1.84      70.34       7.91      78.26        1.03   669.49   0.963
  sub61                     81.29       0.00       0.00       2.67      66.35      11.16      77.51        1.42   924.88   0.953
  sub62                     81.29       0.00       0.00       1.23      73.51       5.28      78.79        2.16  1299.42   0.969
  sub63                     81.29       0.00       0.00       4.89      56.75      18.69      75.44        1.71  1020.95   0.928
  sub64                     81.29       0.00       0.00       2.48      67.90       9.72      77.62        1.86  1048.70   0.955
  sub65                     81.29       0.00       0.00       2.14      69.48       8.43      77.90        2.14  1169.36   0.958
  sub66                     81.29       0.00       0.00       6.00      56.65      17.58      74.23        3.46  1504.37   0.913
  sub67                     81.29       0.00       0.00       1.19      73.55       5.32      78.88        1.47  1019.28   0.970
  sub68                     81.29       0.00       0.00       2.21      68.73       9.18      77.91        2.14  1334.31   0.958
  sub69                     81.29       0.00       0.00       1.96      68.99      10.23      79.23        2.93  1562.26   0.975
  sub70                     81.29       0.00       0.00       6.47      53.49      21.17      74.66        2.16   846.31   0.918
  sub71                     81.29       0.00       0.00       1.26      73.47       5.25      78.72        2.06  1136.61   0.968
  sub72                     81.29       0.00       0.00       1.12      74.20       4.57      78.78        1.08   545.10   0.969
  
  
  ******************
  Node Depth Summary
  ******************
  
  ---------------------------------------------------------------------------------
                                 Average  Maximum  Maximum  Time of Max    Reported
                                   Depth    Depth      HGL   Occurrence   Max Depth
  Node                 Type       Meters   Meters   Meters  days hr:min      Meters
  ---------------------------------------------------------------------------------
  WS02003060           JUNCTION     0.07     0.09     5.02     0  06:21        0.09
  WS02003066           JUNCTION     0.02     0.09     5.64     0  05:31        0.09
  WS02003067           JUNCTION     0.08     0.33     5.65     0  05:33        0.33
  WS02003069           JUNCTION     0.08     0.10     4.68     0  07:23        0.10
  WS02003072           JUNCTION     0.12     0.15     4.52     0  07:26        0.15
  WS02003073           JUNCTION     0.06     0.07     4.14     0  07:48        0.07
  WS02004401           JUNCTION     0.23     0.36     6.36     0  05:11        0.36
  WS02004402           JUNCTION     0.27     0.40     6.36     0  05:01        0.40
  WS02004403           JUNCTION     0.29     0.43     6.36     0  04:52        0.43
  WS02004404           JUNCTION     0.36     0.51     6.36     0  05:09        0.51
  WS02004405           JUNCTION     0.36     0.51     6.36     0  04:58        0.51
  WS02004406           JUNCTION     0.38     0.53     6.36     0  05:14        0.53
  WS02004407           JUNCTION     0.02     0.04     6.36     0  05:40        0.04
  WS02004409           JUNCTION     0.04     0.12     5.89     0  06:17        0.12
  WS02004410           JUNCTION     0.05     0.16     5.88     0  05:38        0.16
  WS02004411           JUNCTION     0.06     0.20     5.88     0  05:15        0.20
  WS02004412           JUNCTION     0.07     0.24     5.88     0  05:03        0.24
  WS02004413           JUNCTION     0.13     0.41     5.88     0  05:17        0.41
  WS02006109           JUNCTION     0.32     0.34     6.96     0  04:26        0.34
  WS02006110           JUNCTION     0.35     0.37     6.96     0  05:15        0.37
  WS02006111           JUNCTION     0.05     0.05     6.76     0  05:16        0.05
  WS02006112           JUNCTION     0.37     0.48     6.36     0  06:31        0.48
  WS02006113           JUNCTION     0.06     0.06     6.96     0  05:13        0.06
  WS02006115           JUNCTION     0.14     0.22     6.36     0  06:04        0.22
  WS02006116           JUNCTION     0.20     0.32     6.36     0  05:37        0.32
  WS02006228           JUNCTION     0.29     0.31     6.96     0  03:48        0.31
  WS02006229           JUNCTION     0.25     0.27     6.96     0  03:27        0.27
  WS02006230           JUNCTION     0.21     0.22     6.96     0  04:00        0.22
  WS02006231           JUNCTION     0.00     0.00     7.12     0  00:00        0.00
  WS02006232           JUNCTION     0.00     0.00     7.04     0  00:00        0.00
  WS02006234           JUNCTION     0.00     0.00     7.16     0  00:00        0.00
  WS02006235           JUNCTION     0.00     0.00     7.16     0  00:00        0.00
  WS02006238           JUNCTION     0.00     0.00     7.14     0  00:00        0.00
  WS02006239           JUNCTION     0.00     0.00     7.21     0  00:00        0.00
  WS02006240           JUNCTION     0.00     0.00     7.29     0  00:00        0.00
  WS02006242           JUNCTION     0.00     0.00     7.27     0  00:00        0.00
  WS02006243           JUNCTION     0.00     0.00     7.42     0  00:00        0.00
  WS02006245           JUNCTION     0.00     0.00     7.48     0  00:00        0.00
  WS02006247           JUNCTION     0.00     0.00     7.50     0  00:00        0.00
  WS02006248           JUNCTION     0.00     0.00     7.59     0  00:00        0.00
  WS02006249           JUNCTION     0.00     0.00     7.60     0  00:00        0.00
  WS02006251           JUNCTION     0.00     0.00     7.67     0  00:00        0.00
  WS02006252           JUNCTION     0.00     0.00     8.24     0  00:00        0.00
  WS02006256           JUNCTION     0.00     0.00     6.93     0  00:00        0.00
  WSF200               JUNCTION     0.01     0.04     5.28     0  05:43        0.04
  YS02001580           JUNCTION     0.20     1.05     9.59     0  01:33        1.05
  YS02001583           JUNCTION     0.24     1.14     9.64     0  01:33        0.96
  YS02001586           JUNCTION     0.37     1.13     9.30     0  01:33        1.13
  YS02001590           JUNCTION     0.49     1.40     9.26     0  01:32        1.37
  YS02001593           JUNCTION     0.42     1.46     9.32     0  01:32        1.29
  YS02001596           JUNCTION     0.57     1.70     9.11     0  01:33        1.65
  YS02001600           JUNCTION     0.68     1.87     9.00     0  01:33        1.86
  YS02001601           JUNCTION     0.87     2.06     8.90     0  01:32        2.06
  YS02001602           JUNCTION     0.76     1.87     8.77     0  01:33        1.87
  YS02001605           JUNCTION     0.70     1.78     8.68     0  01:33        1.77
  YS02001607           JUNCTION     0.64     1.68     8.53     0  01:33        1.64
  YS02001610           JUNCTION     0.68     1.68     8.48     0  01:33        1.68
  YS02001613           JUNCTION     0.64     1.70     8.54     0  01:33        1.66
  YS02001616           JUNCTION     0.57     1.61     8.52     0  01:33        1.61
  YS02001619           JUNCTION     0.55     1.61     8.54     0  01:33        1.61
  YS02001622           JUNCTION     0.54     1.62     8.52     0  01:33        1.58
  YS02001625           JUNCTION     0.78     1.78     8.38     0  01:34        1.78
  YS02001629           JUNCTION     0.69     1.85     8.40     0  01:34        1.85
  YS02001633           JUNCTION     0.75     2.07     8.53     0  01:36        2.07
  YS02001641           JUNCTION     0.70     1.98     8.42     0  01:36        1.98
  YS02001644           JUNCTION     0.69     1.92     8.35     0  01:35        1.92
  YS02001647           JUNCTION     0.45     1.83     8.44     0  01:36        1.78
  YS02001649           JUNCTION     0.50     2.05     8.44     0  01:36        2.05
  YS02001652           JUNCTION     0.37     2.16     8.76     0  01:35        1.95
  YS02001655           JUNCTION     0.27     2.20     9.05     0  01:36        1.81
  YS02001658           JUNCTION     0.21     2.30     9.44     0  01:36        1.61
  YS02001661           JUNCTION     0.22     2.46     9.86     0  01:36        1.43
  YS02001664           JUNCTION     0.10     2.31    10.23     0  01:37        0.94
  YS02001745           JUNCTION     0.12     2.35     9.87     0  01:36        0.92
  YS02001748           JUNCTION     0.18     2.27     9.35     0  01:36        1.34
  YS02001751           JUNCTION     0.22     2.20     9.08     0  01:36        1.51
  YS02001754           JUNCTION     0.30     2.20     8.81     0  01:35        1.77
  YS02001757           JUNCTION     0.50     2.21     8.47     0  01:36        2.09
  YS02001759           JUNCTION     0.44     2.21     8.57     0  01:36        2.08
  YS02001762           JUNCTION     0.42     2.15     8.55     0  01:36        2.05
  YS02001765           JUNCTION     0.40     2.10     8.55     0  01:35        2.00
  YS02001767           JUNCTION     0.39     2.03     8.52     0  01:35        1.95
  YS02001770           JUNCTION     0.41     1.95     8.44     0  01:35        1.95
  YS02001774           JUNCTION     0.47     2.05     8.47     0  01:35        2.00
  YS02001779           JUNCTION     0.29     1.68     8.37     0  01:35        1.68
  YS02001783           JUNCTION     0.40     1.83     7.98     0  01:35        1.83
  YS02001784           JUNCTION     0.39     2.00     8.07     0  01:35        2.00
  YS02001786           JUNCTION     0.32     1.30     7.33     0  01:35        0.92
  YS02001788           JUNCTION     0.23     0.63     6.60     0  01:36        0.62
  YS02001790           JUNCTION     0.27     0.72     6.36     0  01:37        0.71
  YS02001791           JUNCTION     0.17     0.44     5.91     0  01:37        0.43
  YS02001793           JUNCTION     0.09     0.22     5.05     0  01:36        0.22
  YS02001882           JUNCTION     0.49     1.83     8.55     0  01:34        1.66
  YS02001884           JUNCTION     0.58     1.93     8.55     0  01:34        1.77
  YS02001887           JUNCTION     0.65     1.89     8.43     0  01:34        1.85
  YS02001890           JUNCTION     0.68     1.81     8.32     0  01:34        1.81
  YS02001895           JUNCTION     0.46     1.75     8.50     0  01:34        1.56
  YS02001898           JUNCTION     0.47     1.77     8.51     0  01:34        1.55
  YS02001901           JUNCTION     0.58     1.87     8.48     0  01:34        1.67
  YS02001904           JUNCTION     0.56     1.83     8.46     0  01:34        1.63
  YS02001907           JUNCTION     0.85     1.96     8.25     0  01:35        1.96
  YS02001910           JUNCTION     0.68     2.04     8.55     0  01:35        1.95
  YS02001915           JUNCTION     0.51     2.00     8.72     0  01:34        1.90
  YS02001918           JUNCTION     0.31     1.81     8.88     0  01:35        1.81
  YS02001920           JUNCTION     0.38     2.14     9.15     0  01:35        2.09
  YS02001923           JUNCTION     0.26     2.03     9.29     0  01:35        2.03
  YS02001926           JUNCTION     0.27     1.90     9.35     0  01:35        1.90
  YS02001929           JUNCTION     0.18     1.78     9.47     0  01:35        1.67
  YS02006553           JUNCTION     0.85     2.02     8.31     0  01:35        1.98
  YS02006556           JUNCTION     0.83     2.07     8.38     0  01:35        1.97
  YS02006558           JUNCTION     0.86     2.14     8.40     0  01:35        2.02
  YS02006561           JUNCTION     0.25     1.07     7.73     0  01:35        0.91
  YS02163301           JUNCTION     0.71     1.94     8.46     0  01:35        1.94
  YS02163601           JUNCTION     0.77     2.08     8.48     0  01:36        2.08
  YS02164001           JUNCTION     0.70     2.00     8.46     0  01:36        2.00
  CC-1                 OUTFALL      0.10     0.73     0.73     0  00:00        0.38
  CC-2                 OUTFALL      0.09     0.73     0.73     0  00:00        0.38
  JK-1                 OUTFALL      0.08     1.00     1.00     0  00:00        0.20
  JK-2                 OUTFALL      0.08     1.00     1.00     0  00:00        0.20
  WSC                  OUTFALL      0.06     0.07     0.74     0  07:48        0.07
  CC-storage           STORAGE      0.10     0.80     6.30     0  00:00        0.38
  JK-storage           STORAGE      0.09     3.00     3.80     0  00:00        0.20
  
  
  *******************
  Node Inflow Summary
  *******************
  
  -------------------------------------------------------------------------------------------------
                                  Maximum  Maximum                  Lateral       Total        Flow
                                  Lateral    Total  Time of Max      Inflow      Inflow     Balance
                                   Inflow   Inflow   Occurrence      Volume      Volume       Error
  Node                 Type           LPS      LPS  days hr:min    10^6 ltr    10^6 ltr     Percent
  -------------------------------------------------------------------------------------------------
  WS02003060           JUNCTION     16.53    26.81     0  05:43       0.476       0.608       0.313
  WS02003066           JUNCTION      0.00    10.28     0  05:18           0       0.134       0.818
  WS02003067           JUNCTION      0.00    10.28     0  05:21           0       0.138       2.957
  WS02003069           JUNCTION      0.32    27.13     0  06:21     0.00922       0.616       0.534
  WS02003072           JUNCTION      0.00    27.13     0  07:23           0       0.612       0.981
  WS02003073           JUNCTION      1.82    28.95     0  07:26      0.0524       0.659       0.713
  WS02004401           JUNCTION      0.00    10.34     0  01:37           0       0.238       4.243
  WS02004402           JUNCTION      0.00    10.30     0  04:38           0       0.228       4.557
  WS02004403           JUNCTION      0.00    10.49     0  01:25           0       0.218       4.625
  WS02004404           JUNCTION      0.00    10.35     0  04:31           0       0.209       4.001
  WS02004405           JUNCTION      0.00    10.34     0  04:27           0       0.201       6.531
  WS02004406           JUNCTION      0.00    10.30     0  04:42           0       0.188      11.769
  WS02004407           JUNCTION      0.00    10.28     0  05:14           0       0.168       0.555
  WS02004409           JUNCTION      0.00    10.28     0  05:40           0       0.168       1.275
  WS02004410           JUNCTION      0.00    10.28     0  05:14           0       0.165       2.295
  WS02004411           JUNCTION      0.00    10.30     0  04:50           0       0.162       3.155
  WS02004412           JUNCTION      0.00    10.38     0  04:41           0       0.157       4.549
  WS02004413           JUNCTION      0.00    10.50     0  04:38           0        0.15       8.795
  WS02006109           JUNCTION      0.00    10.28     0  03:01           0       0.284       3.381
  WS02006110           JUNCTION      0.00    10.28     0  03:51           0       0.275       3.024
  WS02006111           JUNCTION      0.00    10.28     0  05:16           0       0.266       0.192
  WS02006112           JUNCTION      0.00    10.28     0  05:10           0       0.265       5.464
  WS02006113           JUNCTION      0.00    10.28     0  05:13           0       0.267       0.411
  WS02006115           JUNCTION      0.00    10.58     0  02:07           0       0.251       2.627
  WS02006116           JUNCTION      0.00    10.81     0  02:07           0       0.245       3.019
  WS02006228           JUNCTION      0.00    10.31     0  00:09           0        0.29       2.095
  WS02006229           JUNCTION      0.00    10.49     0  00:19           0       0.293       1.037
  WS02006230           JUNCTION     10.28    10.28     0  00:00       0.296       0.296       0.979
  WS02006231           JUNCTION      0.00     0.00     0  00:00           0           0       0.000 ltr
  WS02006232           JUNCTION      0.00     0.00     0  00:00           0           0       0.000 ltr
  WS02006234           JUNCTION      0.00     0.00     0  00:00           0           0       0.000 ltr
  WS02006235           JUNCTION      0.00     0.00     0  00:00           0           0       0.000 ltr
  WS02006238           JUNCTION      0.00     0.00     0  00:00           0           0       0.000 ltr
  WS02006239           JUNCTION      0.00     0.00     0  00:00           0           0       0.000 ltr
  WS02006240           JUNCTION      0.00     0.00     0  00:00           0           0       0.000 ltr
  WS02006242           JUNCTION      0.00     0.00     0  00:00           0           0       0.000 ltr
  WS02006243           JUNCTION      0.00     0.00     0  00:00           0           0       0.000 ltr
  WS02006245           JUNCTION      0.00     0.00     0  00:00           0           0       0.000 ltr
  WS02006247           JUNCTION      0.00     0.00     0  00:00           0           0       0.000 ltr
  WS02006248           JUNCTION      0.00     0.00     0  00:00           0           0       0.000 ltr
  WS02006249           JUNCTION      0.00     0.00     0  00:00           0           0       0.000 ltr
  WS02006251           JUNCTION      0.00     0.00     0  00:00           0           0       0.000 ltr
  WS02006252           JUNCTION      0.00     0.00     0  00:00           0           0       0.000 ltr
  WS02006256           JUNCTION      0.00     0.00     0  00:00           0           0       0.000 ltr
  WSF200               JUNCTION      0.00    10.28     0  05:32           0       0.133       0.298
  YS02001580           JUNCTION      0.00   173.69     0  01:33           0      0.0046      -0.384
  YS02001583           JUNCTION      0.00   263.11     0  01:33           0      0.0148     -11.866
  YS02001586           JUNCTION    846.31   846.31     0  01:42        2.16        2.17       0.081
  YS02001590           JUNCTION      0.00   317.68     0  02:04           0        1.55      -0.046
  YS02001593           JUNCTION      0.00   317.68     0  02:04           0        1.55       0.004
  YS02001596           JUNCTION      0.00   317.71     0  01:53           0        1.55      -0.010
  YS02001600           JUNCTION      0.00   317.74     0  02:04           0        1.55       0.007
  YS02001601           JUNCTION   1562.26  1879.76     0  01:40        2.93        4.48       0.021
  YS02001602           JUNCTION      0.00   578.97     0  01:33           0         2.6       0.016
  YS02001605           JUNCTION      0.00   579.00     0  01:33           0        2.47       0.017
  YS02001607           JUNCTION      0.00   578.95     0  01:33           0        2.47       0.065
  YS02001610           JUNCTION      0.00   848.56     0  01:42           0        2.89       0.074
  YS02001613           JUNCTION      0.00   552.15     0  01:33           0        2.33       0.066
  YS02001616           JUNCTION      0.00   557.03     0  01:33           0        2.33       0.003
  YS02001619           JUNCTION   1504.37  1504.37     0  01:42        3.46        5.37      -0.012
  YS02001622           JUNCTION      0.00   996.55     0  01:41           0        4.95      -0.015
  YS02001625           JUNCTION      0.00  1409.49     0  01:43           0        5.21       0.170
  YS02001629           JUNCTION      0.00   980.45     0  02:08           0        4.21      -0.004
  YS02001633           JUNCTION   1169.36  1422.77     0  01:35        2.14        5.97       0.049
  YS02001641           JUNCTION      0.00  1423.47     0  01:35           0        5.61       0.046
  YS02001644           JUNCTION   1048.70  1956.25     0  01:35        1.86        7.47       0.040
  YS02001647           JUNCTION      0.00  1955.60     0  01:35           0        6.78       0.003
  YS02001649           JUNCTION      0.00  2210.55     0  01:35           0        8.49       0.001
  YS02001652           JUNCTION      0.00  1062.23     0  01:37           0        1.71      -0.134
  YS02001655           JUNCTION      0.00  1062.04     0  01:37           0        1.71       0.026
  YS02001658           JUNCTION      0.00  1062.24     0  01:37           0        1.71      -0.036
  YS02001661           JUNCTION      0.00  1060.81     0  01:37           0        1.71      -0.013
  YS02001664           JUNCTION   1020.95  1020.95     0  01:39        1.71        1.71      -0.023
  YS02001745           JUNCTION    669.49   797.82     0  01:36        1.03        1.03       0.110
  YS02001748           JUNCTION      0.00  1045.87     0  01:36           0        1.03      -0.324
  YS02001751           JUNCTION      0.00   698.97     0  01:38           0        1.04       0.000
  YS02001754           JUNCTION      0.00   698.97     0  01:38           0        1.05      -0.160
  YS02001757           JUNCTION      0.00  3419.89     0  01:36           0        12.7      -0.007
  YS02001759           JUNCTION    924.88  1523.98     0  01:36        1.42        3.21      -0.012
  YS02001762           JUNCTION      0.00   786.38     0  01:48           0        1.78      -0.012
  YS02001765           JUNCTION      0.00   786.05     0  01:48           0        1.78      -0.016
  YS02001767           JUNCTION      0.00   785.98     0  01:48           0        1.78      -0.024
  YS02001770           JUNCTION   1299.42  1299.42     0  01:39        2.16         2.2      -0.030
  YS02001774           JUNCTION      0.00   802.35     0  01:39           0       0.427       0.214
  YS02001779           JUNCTION      0.00   802.43     0  01:39           0       0.385      -0.235
  YS02001783           JUNCTION      0.00  1171.84     0  01:37           0        4.56      -0.004
  YS02001784           JUNCTION      0.00  1171.73     0  01:36           0        4.56      -0.002
  YS02001786           JUNCTION      0.00  1171.76     0  01:37           0        4.56       0.002
  YS02001788           JUNCTION      0.00  1171.83     0  01:37           0        4.56       0.001
  YS02001790           JUNCTION      0.00  1182.33     0  01:36           0        4.56       0.045
  YS02001791           JUNCTION      0.00  1283.50     0  01:37           0        4.55      -0.041
  YS02001793           JUNCTION      0.00  1247.35     0  01:36           0        4.56       0.002
  YS02001882           JUNCTION      0.00    95.69     0  01:34           0      0.0135       1.637
  YS02001884           JUNCTION      0.00   166.46     0  01:34           0      0.0494       3.556
  YS02001887           JUNCTION   1019.28  1019.30     0  01:38        1.47         1.5       0.249
  YS02001890           JUNCTION      0.00  1019.29     0  01:38           0        1.46       0.282
  YS02001895           JUNCTION      0.00   603.43     0  01:35           0        1.26       0.118
  YS02001898           JUNCTION      0.00   603.19     0  01:35           0        1.25      -0.124
  YS02001901           JUNCTION      0.00   604.78     0  01:35           0        1.26       0.194
  YS02001904           JUNCTION      0.00   605.52     0  01:35           0        1.26       0.165
  YS02001907           JUNCTION      0.00  2356.51     0  01:39           0        4.43       0.370
  YS02001910           JUNCTION      0.00  1684.80     0  01:40           0        3.14       0.192
  YS02001915           JUNCTION   1136.61  1684.57     0  01:40        2.06        3.19       0.010
  YS02001918           JUNCTION      0.00   765.90     0  01:35           0        1.17      -0.032
  YS02001920           JUNCTION      0.00   750.04     0  01:35           0        1.14       0.003
  YS02001923           JUNCTION      0.00  1004.22     0  01:35           0        1.12      -0.131
  YS02001926           JUNCTION      0.00  1249.18     0  01:35           0        1.11      -0.134
  YS02001929           JUNCTION    545.10   979.38     0  01:35        1.08        1.09      -0.054
  YS02006553           JUNCTION      0.00   795.23     0  02:04           0        2.54       0.430
  YS02006556           JUNCTION      0.00   795.70     0  02:04           0        2.56       0.284
  YS02006558           JUNCTION   1334.31  1334.31     0  01:39        2.14        4.63       0.071
  YS02006561           JUNCTION      0.00  1173.84     0  01:34           0        4.56      -0.011
  YS02163301           JUNCTION      0.00   982.45     0  02:09           0        4.19       0.031
  YS02163601           JUNCTION      0.00  1422.39     0  01:35           0         5.6       0.084
  YS02164001           JUNCTION      0.00  1421.99     0  01:34           0         5.6       0.037
  CC-1                 OUTFALL       0.00 16161.72     0  00:00           0        7.34       0.000
  CC-2                 OUTFALL       0.00 17045.67     0  00:00           0        7.64       0.000
  JK-1                 OUTFALL       0.00  8590.66     0  00:00           0        2.38       0.000
  JK-2                 OUTFALL       0.00  8788.77     0  00:00           0        2.43       0.000
  WSC                  OUTFALL       0.00    28.95     0  07:48           0       0.654       0.000
  CC-storage           STORAGE       0.00  3389.61     0  01:37           0        14.9      -0.401
  JK-storage           STORAGE       0.00  1273.85     0  01:36           0        4.71      -2.158
  
  
  **********************
  Node Surcharge Summary
  **********************
  
  Surcharging occurs when water rises above the top of the highest conduit.
  ---------------------------------------------------------------------
                                               Max. Height   Min. Depth
                                   Hours       Above Crown    Below Rim
  Node                 Type      Surcharged         Meters       Meters
  ---------------------------------------------------------------------
  YS02001580           JUNCTION        0.80          0.450        0.000
  YS02001583           JUNCTION        0.80          0.500        0.000
  YS02001586           JUNCTION        0.90          0.510        0.000
  YS02001590           JUNCTION        0.99          0.750        0.000
  YS02001593           JUNCTION        0.99          0.840        0.000
  YS02001596           JUNCTION        1.11          0.965        0.105
  YS02001600           JUNCTION        1.30          1.190        0.000
  YS02001601           JUNCTION        1.67          1.440        0.000
  YS02001602           JUNCTION        1.60          1.270        0.000
  YS02001605           JUNCTION        1.55          1.180        0.000
  YS02001607           JUNCTION        0.90          0.680        0.000
  YS02001610           JUNCTION        0.94          0.680        0.000
  YS02001613           JUNCTION        0.89          0.700        0.000
  YS02001616           JUNCTION        0.83          0.610        0.000
  YS02001619           JUNCTION        0.82          0.610        0.000
  YS02001622           JUNCTION        0.81          0.620        0.000
  YS02001625           JUNCTION        1.04          0.780        0.000
  YS02001629           JUNCTION        0.66          0.470        0.000
  YS02001633           JUNCTION        1.05          1.051        0.009
  YS02001641           JUNCTION        0.91          0.981        0.119
  YS02001644           JUNCTION        0.83          0.920        0.000
  YS02001647           JUNCTION        0.52          0.831        0.069
  YS02001649           JUNCTION        0.55          1.050        0.000
  YS02001652           JUNCTION        0.43          1.130        0.000
  YS02001655           JUNCTION        0.34          1.200        0.000
  YS02001658           JUNCTION        0.24          1.300        0.000
  YS02001661           JUNCTION        0.09          1.390        0.000
  YS02001664           JUNCTION        0.01          1.310        0.000
  YS02001745           JUNCTION        0.01          1.350        0.000
  YS02001748           JUNCTION        0.16          1.190        0.000
  YS02001751           JUNCTION        0.27          1.200        0.000
  YS02001754           JUNCTION        0.35          1.150        0.000
  YS02001757           JUNCTION        0.53          1.210        0.000
  YS02001759           JUNCTION        0.48          1.210        0.000
  YS02001762           JUNCTION        0.47          1.150        0.000
  YS02001765           JUNCTION        0.44          1.100        0.000
  YS02001767           JUNCTION        0.43          1.030        0.000
  YS02001770           JUNCTION        0.42          0.920        0.000
  YS02001774           JUNCTION        0.47          1.050        0.000
  YS02001779           JUNCTION        0.36          0.680        0.000
  YS02001783           JUNCTION        0.68          1.034        0.566
  YS02001784           JUNCTION        0.65          1.204        0.286
  YS02001786           JUNCTION        0.54          0.505        0.925
  YS02001882           JUNCTION        0.61          0.830        0.000
  YS02001884           JUNCTION        0.62          0.870        0.000
  YS02001887           JUNCTION        0.66          0.837        0.113
  YS02001890           JUNCTION        0.68          0.760        0.000
  YS02001895           JUNCTION        0.60          0.750        0.000
  YS02001898           JUNCTION        0.59          0.740        0.000
  YS02001901           JUNCTION        0.65          0.870        0.000
  YS02001904           JUNCTION        0.64          0.826        0.024
  YS02001907           JUNCTION        0.88          0.950        0.000
  YS02001910           JUNCTION        0.71          1.041        0.059
  YS02001915           JUNCTION        0.61          1.000        0.000
  YS02001918           JUNCTION        0.52          0.810        0.000
  YS02001920           JUNCTION        0.53          1.140        0.000
  YS02001923           JUNCTION        0.19          0.820        0.000
  YS02001926           JUNCTION        0.22          0.900        0.000
  YS02001929           JUNCTION        0.02          0.780        0.000
  YS02006553           JUNCTION        0.91          1.024        0.166
  YS02006556           JUNCTION        0.79          1.030        0.320
  YS02006558           JUNCTION        0.78          1.035        0.365
  YS02006561           JUNCTION        0.48          0.270        0.880
  YS02163301           JUNCTION        1.03          0.945        0.085
  YS02163601           JUNCTION        1.08          1.080        0.000
  YS02164001           JUNCTION        0.93          1.001        0.099
  
  
  *********************
  Node Flooding Summary
  *********************
  
  Flooding refers to all water that overflows a node, whether it ponds or not.
  --------------------------------------------------------------------------
                                                             Total   Maximum
                                 Maximum   Time of Max       Flood    Ponded
                        Hours       Rate    Occurrence      Volume     Depth
  Node                 Flooded       LPS   days hr:min    10^6 ltr    Meters
  --------------------------------------------------------------------------
  YS02001580              0.01    120.63      0  01:33       0.001     0.000
  YS02001583              0.01    224.24      0  01:33       0.000     0.000
  YS02001586              0.65    528.80      0  01:42       0.607     0.000
  YS02001590              0.01     84.70      0  01:32       0.000     0.000
  YS02001593              0.01     29.53      0  01:32       0.000     0.000
  YS02001600              0.01      5.75      0  01:33       0.000     0.000
  YS02001601              0.80   1481.91      0  01:40       1.884     0.000
  YS02001602              0.57     61.88      0  01:37       0.121     0.000
  YS02001605              0.01      3.93      0  01:33       0.000     0.000
  YS02001607              0.01     72.35      0  01:33       0.000     0.000
  YS02001610              0.54    848.34      0  01:42       0.979     0.000
  YS02001613              0.01     15.64      0  01:33       0.000     0.000
  YS02001616              0.01    134.84      0  01:33       0.000     0.000
  YS02001619              0.01    151.61      0  01:33       0.001     0.000
  YS02001622              0.01    227.71      0  01:33       0.001     0.000
  YS02001625              0.46   1409.49      0  01:43       1.363     0.000
  YS02001629              0.17    411.11      0  01:38       0.118     0.000
  YS02001644              0.23   1408.97      0  01:39       0.675     0.000
  YS02001649              0.02    355.72      0  01:37       0.012     0.000
  YS02001652              0.01    218.82      0  01:35       0.000     0.000
  YS02001655              0.01    459.16      0  01:36       0.001     0.000
  YS02001658              0.01    398.55      0  01:36       0.001     0.000
  YS02001661              0.01    329.85      0  01:36       0.000     0.000
  YS02001664              0.01    215.47      0  01:37       0.000     0.000
  YS02001745              0.01    491.95      0  01:36       0.000     0.000
  YS02001748              0.01    552.01      0  01:36       0.002     0.000
  YS02001751              0.01    518.48      0  01:36       0.001     0.000
  YS02001754              0.01    205.63      0  01:35       0.001     0.000
  YS02001757              0.01    111.90      0  01:36       0.001     0.000
  YS02001759              0.01      5.34      0  01:36       0.000     0.000
  YS02001762              0.01     16.44      0  01:36       0.000     0.000
  YS02001765              0.01     99.36      0  01:35       0.000     0.000
  YS02001767              0.01      7.01      0  01:36       0.000     0.000
  YS02001770              0.03    331.85      0  01:35       0.008     0.000
  YS02001774              0.01     43.28      0  01:35       0.000     0.000
  YS02001779              0.21    802.35      0  01:39       0.366     0.000
  YS02001882              0.01     30.51      0  01:34       0.000     0.000
  YS02001884              0.01     33.28      0  01:34       0.000     0.000
  YS02001890              0.22    495.94      0  01:38       0.201     0.000
  YS02001895              0.01    234.75      0  01:34       0.000     0.000
  YS02001898              0.01    304.39      0  01:34       0.001     0.000
  YS02001901              0.01      8.17      0  01:34       0.000     0.000
  YS02001907              0.46   2356.49      0  01:39       1.924     0.000
  YS02001915              0.01    205.10      0  01:34       0.000     0.000
  YS02001918              0.01    272.36      0  01:36       0.004     0.000
  YS02001920              0.01    226.50      0  01:35       0.000     0.000
  YS02001923              0.01    317.01      0  01:35       0.002     0.000
  YS02001926              0.01    749.75      0  01:35       0.005     0.000
  YS02001929              0.01    884.90      0  01:35       0.002     0.000
  YS02163601              0.01      3.07      0  01:36       0.000     0.000
  
  
  **********************
  Storage Volume Summary
  **********************
  
  --------------------------------------------------------------------------------------------------
                         Average     Avg  Evap Exfil       Maximum     Max    Time of Max    Maximum
                          Volume    Pcnt  Pcnt  Pcnt        Volume    Pcnt     Occurrence    Outflow
  Storage Unit           1000 m3    Full  Loss  Loss       1000 m3    Full    days hr:min        LPS
  --------------------------------------------------------------------------------------------------
  CC-storage               0.270       4     0     0         2.229      35       0  00:00   32996.09
  JK-storage               0.004       1     0     0         0.151      52       0  00:00   17379.43
  
  
  ***********************
  Outfall Loading Summary
  ***********************
  
  -----------------------------------------------------------
                         Flow       Avg       Max       Total
                         Freq      Flow      Flow      Volume
  Outfall Node           Pcnt       LPS       LPS    10^6 ltr
  -----------------------------------------------------------
  CC-1                 100.00    602.80  16161.72       7.343
  CC-2                 100.00    627.48  17045.67       7.640
  JK-1                  93.07    208.30   8590.66       2.384
  JK-2                  93.10    211.90   8788.77       2.426
  WSC                   99.97     20.08     28.95       0.654
  -----------------------------------------------------------
  System                97.23   1670.57     28.95      20.448
  
  
  ********************
  Link Flow Summary
  ********************
  
  -----------------------------------------------------------------------------
                                 Maximum  Time of Max   Maximum    Max/    Max/
                                  |Flow|   Occurrence   |Veloc|    Full    Full
  Link                 Type          LPS  days hr:min     m/sec    Flow   Depth
  -----------------------------------------------------------------------------
  1                    CONDUIT     28.95     0  07:48      1.17    0.01    0.07
  WS02003060WS02003069 CONDUIT     26.81     0  06:21      0.77    0.01    0.08
  WS02003066WSF200     CONDUIT     10.28     0  05:32      0.89    0.00    0.03
  WS02003067WS02003066 CONDUIT     10.28     0  05:18      0.08    0.00    0.17
  WS02003069WS02003072 CONDUIT     27.13     0  07:23      0.62    0.01    0.10
  WS02003072WS02003073 CONDUIT     27.13     0  07:26      0.49    0.06    0.10
  WS02004401WS02004402 CONDUIT     10.30     0  04:38      0.34    0.01    0.38
  WS02004402WS02004403 CONDUIT     10.49     0  01:25      0.38    0.02    0.41
  WS02004403WS02004404 CONDUIT     10.35     0  04:31      0.37    0.01    0.47
  WS02004404WS02004405 CONDUIT     10.34     0  04:27      0.30    0.10    0.51
  WS02004405WS02004406 CONDUIT     10.30     0  04:42      0.30    0.02    0.52
  WS02004406WS02004407 CONDUIT     10.28     0  05:14      0.06    0.00    0.29
  WS02004407WS02004409 CONDUIT     10.28     0  05:40      0.50    0.00    0.08
  WS02004409WS02004410 CONDUIT     10.28     0  05:14      0.33    0.01    0.14
  WS02004410WS02004411 CONDUIT     10.30     0  04:50      0.31    0.01    0.18
  WS02004411WS02004412 CONDUIT     10.38     0  04:41      0.35    0.01    0.22
  WS02004412WS02004413 CONDUIT     10.50     0  04:38      0.28    0.01    0.32
  WS02004413WS02003067 CONDUIT     10.28     0  05:21      0.08    0.00    0.23
  WS02006109WS02006110 CONDUIT     10.28     0  03:51      0.20    0.02    0.38
  WS02006110WS02006113 CONDUIT     10.28     0  05:13      0.09    0.01    0.27
  WS02006111WS02006112 CONDUIT     10.28     0  05:10      0.65    0.00    0.31
  WS02006112WS02006115 CONDUIT     10.58     0  02:07      0.09    0.01    0.34
  WS02006113WS02006111 CONDUIT     10.28     0  05:16      0.65    0.01    0.07
  WS02006115WS02006116 CONDUIT     10.81     0  02:07      0.44    0.01    0.24
  WS02006116WS02004401 CONDUIT     10.34     0  01:37      0.34    0.01    0.34
  WS02006228WS02006109 CONDUIT     10.28     0  03:01      0.32    0.04    0.39
  WS02006229WS02006228 CONDUIT     10.31     0  00:09      0.42    0.03    0.34
  WS02006230WS02006229 CONDUIT     10.49     0  00:19      0.36    0.23    0.31
  WS02006231WS02006230 CONDUIT      0.00     0  00:00      0.00    0.00    0.00
  WS02006232WS02006231 CONDUIT      0.00     0  00:00      0.00    0.00    0.00
  WS02006234WS02006232 CONDUIT      0.00     0  00:00      0.00    0.00    0.00
  WS02006235WS02006234 CONDUIT      0.00     0  00:00      0.00    0.00    0.00
  WS02006238WS02006235 CONDUIT      0.00     0  00:00      0.00    0.00    0.00
  WS02006239WS02006238 CONDUIT      0.00     0  00:00      0.00    0.00    0.00
  WS02006240WS02006239 CONDUIT      0.00     0  00:00      0.00    0.00    0.00
  WS02006242WS02006240 CONDUIT      0.00     0  00:00      0.00    0.00    0.00
  WS02006243WS02006242 CONDUIT      0.00     0  00:00      0.00    0.00    0.00
  WS02006245WS02006243 CONDUIT      0.00     0  00:00      0.00    0.00    0.00
  WS02006247WS02006245 CONDUIT      0.00     0  00:00      0.00    0.00    0.00
  WS02006248WS02006247 CONDUIT      0.00     0  00:00      0.00    0.00    0.00
  WS02006249WS02006248 CONDUIT      0.00     0  00:00      0.00    0.00    0.00
  WS02006251WS02006249 CONDUIT      0.00     0  00:00      0.00    0.00    0.00
  WS02006252WS02006251 CONDUIT      0.00     0  00:00      0.00    0.00    0.00
  WS02006256WS02006235 CONDUIT      0.00     0  00:00      0.00    0.00    0.00
  WSF200WS02003060     CONDUIT     10.28     0  05:43      0.43    0.00    0.05
  YS02001580YS02001583 CONDUIT    173.69     0  01:33      0.91    0.67    1.00
  YS02001583YS02001586 CONDUIT    204.68     0  01:33      0.93    0.31    1.00
  YS02001586YS02001590 CONDUIT    317.68     0  02:04      1.28    0.56    1.00
  YS02001590YS02001593 CONDUIT    317.68     0  02:04      1.12    1.99    1.00
  YS02001593YS02001596 CONDUIT    317.71     0  01:53      1.75    0.50    1.00
  YS02001596YS02001600 CONDUIT    317.74     0  02:04      1.23    0.62    1.00
  YS02001600YS02001601 CONDUIT    317.69     0  02:04      1.12    0.55    1.00
  YS02001601YS02001602 CONDUIT    578.97     0  01:33      2.05    2.09    1.00
  YS02001602YS02001605 CONDUIT    579.00     0  01:33      2.05   12.25    1.00
  YS02001605YS02001607 CONDUIT    578.95     0  01:33      2.05    3.17    1.00
  YS02001607YS02001610 CONDUIT    550.17     0  01:33      0.72    0.52    1.00
  YS02001610YS02001613 CONDUIT    552.15     0  01:33      0.70    0.64    1.00
  YS02001613YS02001616 CONDUIT    557.03     0  01:33      0.71    0.48    1.00
  YS02001616YS02001619 CONDUIT    512.73     0  02:21      0.69    0.89    1.00
  YS02001619YS02001622 CONDUIT    996.55     0  01:41      1.30    1.47    1.00
  YS02001622YS02001625 CONDUIT    996.64     0  01:41      1.27    0.53    1.00
  YS02001625YS02001629 CONDUIT    980.45     0  02:08      1.25    0.47    1.00
  YS02001629YS02163301 CONDUIT    982.45     0  02:09      1.25    1.21    1.00
  YS02001633YS02163601 CONDUIT   1422.39     0  01:35      1.81    1.49    1.00
  YS02001641YS02001644 CONDUIT   1424.05     0  01:35      1.81    4.60    1.00
  YS02001644YS02001647 CONDUIT   1955.60     0  01:35      2.49    1.15    1.00
  YS02001647YS02001649 CONDUIT   1968.11     0  01:35      2.51    1.04    1.00
  YS02001649YS02001757 CONDUIT   2209.46     0  01:35      2.81    1.34    1.00
  YS02001652YS02001649 CONDUIT   1062.66     0  01:37      1.35    0.53    1.00
  YS02001655YS02001652 CONDUIT   1062.23     0  01:37      1.55    0.52    1.00
  YS02001658YS02001655 CONDUIT   1062.04     0  01:37      2.06    0.45    1.00
  YS02001661YS02001658 CONDUIT   1062.24     0  01:37      2.47    0.42    1.00
  YS02001664YS02001661 CONDUIT   1060.81     0  01:37      2.57    0.33    1.00
  YS02001745YS02001748 CONDUIT    698.11     0  01:38      2.47    0.27    1.00
  YS02001748YS02001751 CONDUIT    698.97     0  01:38      1.94    0.35    1.00
  YS02001751YS02001754 CONDUIT    698.97     0  01:38      1.60    0.34    1.00
  YS02001754YS02001757 CONDUIT    699.09     0  01:38      0.89    0.28    1.00
  YS02001757CaochengTiaoxuchi CONDUIT   3389.61     0  01:37      6.99    1.47    0.60
  YS02001759YS02001757 CONDUIT   1522.28     0  01:36      1.94    1.08    1.00
  YS02001762YS02001759 CONDUIT    786.58     0  01:48      1.00    0.91    1.00
  YS02001765YS02001762 CONDUIT    786.38     0  01:48      1.00    0.74    1.00
  YS02001767YS02001765 CONDUIT    786.05     0  01:48      1.00    0.99    1.00
  YS02001770YS02001767 CONDUIT    785.98     0  01:48      1.00    3.11    1.00
  YS02001774YS02001770 CONDUIT    802.35     0  01:39      1.02    0.51    1.00
  YS02001779YS02001774 CONDUIT    802.43     0  01:39      1.02    0.40    1.00
  YS02001783YS02001784 CONDUIT   1171.73     0  01:36      2.33    1.62    1.00
  YS02001784YS02001785 CONDUIT   1171.76     0  01:37      2.33    2.73    1.00
  YS02001786YS02001788 CONDUIT   1171.83     0  01:37      2.49    2.26    0.89
  YS02001788YS02001790 CONDUIT   1182.33     0  01:36      2.73    0.87    0.84
  YS02001790YS02001791 CONDUIT   1283.50     0  01:37      3.43    1.40    0.70
  YS02001791YS02001793 CONDUIT   1247.35     0  01:36      6.71    0.54    0.41
  YS02001793JiankangQianchi CONDUIT   1273.85     0  01:36     10.71    0.10    0.50
  YS02001882YS02001884 CONDUIT     95.69     0  01:34      0.20    0.11    1.00
  YS02001884YS02001887 CONDUIT    166.46     0  01:34      0.21    0.22    1.00
  YS02001887YS02001890 CONDUIT   1019.29     0  01:38      1.30    1.74    1.00
  YS02001890YS02001895 CONDUIT    603.43     0  01:35      0.77    0.28    1.00
  YS02001895YS02001898 CONDUIT    603.19     0  01:35      0.77    1.05    1.00
  YS02001898YS02001901 CONDUIT    604.78     0  01:35      0.77    0.39    1.00
  YS02001901YS02001904 CONDUIT    605.52     0  01:35      0.77    0.94    1.00
  YS02001904YS02001907 CONDUIT    606.68     0  01:34      0.77    0.21    1.00
  YS02001907YS02006553 CONDUIT    795.23     0  02:04      0.88    0.94    1.00
  YS02001910YS02001907 CONDUIT   1685.01     0  01:40      2.15    0.95    1.00
  YS02001915YS02001910 CONDUIT   1684.80     0  01:40      2.15    0.84    1.00
  YS02001918YS02001915 CONDUIT    765.90     0  01:35      0.98    0.42    1.00
  YS02001920YS02001918 CONDUIT    750.04     0  01:35      0.95    0.73    1.00
  YS02001923YS02001920 CONDUIT    769.53     0  01:35      1.05    0.35    1.00
  YS02001926YS02001923 CONDUIT    998.53     0  01:35      1.43    1.43    1.00
  YS02001929YS02001926 CONDUIT    667.57     0  01:35      1.24    0.32    1.00
  YS02006553YS02006556 CONDUIT    795.70     0  02:04      1.01    0.68    1.00
  YS02006556YS02006558 CONDUIT    796.59     0  02:04      1.01    0.63    1.00
  YS02006558YS02006561 CONDUIT   1173.84     0  01:34      4.16    2.59    1.00
  YS02006561YS02001783 CONDUIT   1171.84     0  01:37      2.33    0.61    1.00
  YS02163301YS02001633 CONDUIT    982.49     0  02:09      1.25    0.92    1.00
  YS02163601YS02164001 CONDUIT   1421.99     0  01:34      1.81    1.26    1.00
  YS02164001YS02001641 CONDUIT   1423.47     0  01:35      1.81    1.94    1.00
  2                    CONDUIT  16161.72     0  00:00     26.41    0.88    0.73
  3                    CONDUIT  17045.67     0  00:00     27.65    0.89    0.73
  4                    CONDUIT      0.00     0  00:00      0.00    0.00    0.40
  5                    CONDUIT   8590.66     0  00:00     10.94    1.24    1.00
  6                    CONDUIT   8788.77     0  00:00     11.19    1.25    1.00
  7                    CONDUIT      0.00     0  00:00      0.00    0.00    0.50
  
  
  ***************************
  Flow Classification Summary
  ***************************
  
  -------------------------------------------------------------------------------------
                      Adjusted    ---------- Fraction of Time in Flow Class ---------- 
                       /Actual         Up    Down  Sub   Sup   Up    Down  Norm  Inlet 
  Conduit               Length    Dry  Dry   Dry   Crit  Crit  Crit  Crit  Ltd   Ctrl  
  -------------------------------------------------------------------------------------
  1                       1.00   0.00  0.00  0.00  0.00  1.00  0.00  0.00  0.92  0.00
  WS02003060WS02003069    1.00   0.00  0.00  0.00  0.98  0.02  0.00  0.00  0.99  0.00
  WS02003066WSF200        1.00   0.77  0.00  0.00  0.00  0.23  0.00  0.00  0.45  0.00
  WS02003067WS02003066    1.00   0.74  0.03  0.00  0.24  0.00  0.00  0.00  0.00  0.00
  WS02003069WS02003072    1.00   0.00  0.00  0.00  0.99  0.01  0.00  0.00  0.99  0.00
  WS02003072WS02003073    1.00   0.00  0.00  0.00  0.00  0.00  0.00  1.00  0.00  0.00
  WS02004401WS02004402    1.00   0.11  0.00  0.00  0.89  0.00  0.00  0.00  0.05  0.00
  WS02004402WS02004403    1.00   0.11  0.00  0.00  0.89  0.00  0.00  0.00  0.00  0.00
  WS02004403WS02004404    1.00   0.11  0.00  0.00  0.89  0.00  0.00  0.00  0.03  0.00
  WS02004404WS02004405    1.00   0.12  0.00  0.00  0.88  0.00  0.00  0.00  0.00  0.00
  WS02004405WS02004406    1.00   0.12  0.00  0.00  0.88  0.00  0.00  0.00  0.00  0.00
  WS02004406WS02004407    1.00   0.12  0.47  0.00  0.41  0.00  0.00  0.00  0.00  0.00
  WS02004407WS02004409    1.00   0.59  0.00  0.00  0.41  0.00  0.00  0.00  0.61  0.00
  WS02004409WS02004410    1.00   0.59  0.00  0.00  0.41  0.00  0.00  0.00  0.05  0.00
  WS02004410WS02004411    1.00   0.59  0.00  0.00  0.41  0.00  0.00  0.00  0.05  0.00
  WS02004411WS02004412    1.00   0.60  0.00  0.00  0.40  0.00  0.00  0.00  0.00  0.00
  WS02004412WS02004413    1.00   0.60  0.00  0.00  0.40  0.00  0.00  0.00  0.05  0.00
  WS02004413WS02003067    1.00   0.61  0.13  0.00  0.00  0.00  0.27  0.00  0.00  0.00
  WS02006109WS02006110    1.00   0.01  0.02  0.00  0.95  0.00  0.02  0.00  0.00  0.00
  WS02006110WS02006113    1.00   0.03  0.05  0.00  0.92  0.00  0.00  0.00  0.00  0.00
  WS02006111WS02006112    1.00   0.09  0.00  0.00  0.90  0.00  0.00  0.01  0.91  0.00
  WS02006112WS02006115    1.00   0.09  0.02  0.00  0.89  0.00  0.00  0.00  0.00  0.00
  WS02006113WS02006111    1.00   0.08  0.00  0.00  0.02  0.90  0.00  0.00  0.00  0.00
  WS02006115WS02006116    1.00   0.11  0.00  0.00  0.71  0.00  0.00  0.18  0.01  0.00
  WS02006116WS02004401    1.00   0.11  0.00  0.00  0.89  0.00  0.00  0.00  0.01  0.00
  WS02006228WS02006109    1.00   0.00  0.00  0.00  0.97  0.00  0.00  0.03  0.00  0.00
  WS02006229WS02006228    1.00   0.00  0.00  0.00  0.97  0.00  0.00  0.03  0.00  0.00
  WS02006230WS02006229    1.00   0.00  0.00  0.00  0.94  0.00  0.00  0.06  0.00  0.00
  WS02006231WS02006230    1.00   1.00  0.00  0.00  0.00  0.00  0.00  0.00  0.00  0.00
  WS02006232WS02006231    1.00   1.00  0.00  0.00  0.00  0.00  0.00  0.00  0.00  0.00
  WS02006234WS02006232    1.00   1.00  0.00  0.00  0.00  0.00  0.00  0.00  0.00  0.00
  WS02006235WS02006234    1.00   1.00  0.00  0.00  0.00  0.00  0.00  0.00  0.00  0.00
  WS02006238WS02006235    1.00   1.00  0.00  0.00  0.00  0.00  0.00  0.00  0.00  0.00
  WS02006239WS02006238    1.00   1.00  0.00  0.00  0.00  0.00  0.00  0.00  0.00  0.00
  WS02006240WS02006239    1.00   1.00  0.00  0.00  0.00  0.00  0.00  0.00  0.00  0.00
  WS02006242WS02006240    1.00   1.00  0.00  0.00  0.00  0.00  0.00  0.00  0.00  0.00
  WS02006243WS02006242    1.00   1.00  0.00  0.00  0.00  0.00  0.00  0.00  0.00  0.00
  WS02006245WS02006243    1.00   1.00  0.00  0.00  0.00  0.00  0.00  0.00  0.00  0.00
  WS02006247WS02006245    1.00   1.00  0.00  0.00  0.00  0.00  0.00  0.00  0.00  0.00
  WS02006248WS02006247    1.00   1.00  0.00  0.00  0.00  0.00  0.00  0.00  0.00  0.00
  WS02006249WS02006248    1.00   1.00  0.00  0.00  0.00  0.00  0.00  0.00  0.00  0.00
  WS02006251WS02006249    1.00   1.00  0.00  0.00  0.00  0.00  0.00  0.00  0.00  0.00
  WS02006252WS02006251    1.00   1.00  0.00  0.00  0.00  0.00  0.00  0.00  0.00  0.00
  WS02006256WS02006235    1.00   1.00  0.00  0.00  0.00  0.00  0.00  0.00  0.00  0.00
  WSF200WS02003060        1.00   0.00  0.77  0.00  0.23  0.00  0.00  0.00  0.46  0.00
  YS02001580YS02001583    1.00   0.16  0.38  0.00  0.47  0.00  0.00  0.00  0.69  0.00
  YS02001583YS02001586    1.00   0.24  0.22  0.00  0.54  0.00  0.00  0.00  0.69  0.00
  YS02001586YS02001590    1.00   0.11  0.00  0.00  0.68  0.03  0.00  0.19  0.34  0.00
  YS02001590YS02001593    1.00   0.11  0.00  0.00  0.33  0.00  0.55  0.00  0.00  0.00
  YS02001593YS02001596    1.00   0.12  0.00  0.00  0.37  0.02  0.00  0.49  0.03  0.00
  YS02001596YS02001600    1.00   0.12  0.00  0.00  0.47  0.01  0.00  0.40  0.04  0.00
  YS02001600YS02001601    1.00   0.11  0.00  0.00  0.88  0.00  0.00  0.00  0.59  0.00
  YS02001601YS02001602    1.00   0.11  0.00  0.00  0.88  0.00  0.00  0.00  0.00  0.00
  YS02001602YS02001605    1.00   0.12  0.00  0.00  0.88  0.00  0.00  0.00  0.00  0.00
  YS02001605YS02001607    1.00   0.12  0.00  0.00  0.88  0.00  0.00  0.00  0.00  0.00
  YS02001607YS02001610    1.00   0.12  0.00  0.00  0.88  0.00  0.00  0.00  0.01  0.00
  YS02001610YS02001613    1.00   0.11  0.00  0.00  0.89  0.00  0.00  0.00  0.00  0.00
  YS02001613YS02001616    1.00   0.11  0.00  0.00  0.89  0.00  0.00  0.00  0.00  0.00
  YS02001616YS02001619    1.00   0.11  0.00  0.00  0.89  0.00  0.00  0.00  0.00  0.00
  YS02001619YS02001622    1.00   0.11  0.00  0.00  0.89  0.00  0.00  0.00  0.29  0.00
  YS02001622YS02001625    1.00   0.11  0.00  0.00  0.89  0.00  0.00  0.00  0.03  0.00
  YS02001625YS02001629    1.00   0.11  0.02  0.00  0.43  0.00  0.44  0.00  0.00  0.00
  YS02001629YS02163301    1.00   0.12  0.01  0.00  0.87  0.00  0.00  0.00  0.00  0.00
  YS02001633YS02163601    1.00   0.12  0.00  0.00  0.88  0.00  0.00  0.00  0.01  0.00
  YS02001641YS02001644    1.00   0.11  0.00  0.00  0.89  0.00  0.00  0.00  0.00  0.00
  YS02001644YS02001647    1.00   0.11  0.02  0.00  0.87  0.00  0.00  0.00  0.00  0.00
  YS02001647YS02001649    1.00   0.12  0.01  0.00  0.50  0.37  0.00  0.00  0.56  0.00
  YS02001649YS02001757    1.00   0.03  0.09  0.00  0.54  0.34  0.00  0.00  0.60  0.00
  YS02001652YS02001649    1.00   0.12  0.00  0.00  0.87  0.01  0.00  0.00  0.59  0.00
  YS02001655YS02001652    1.00   0.12  0.00  0.00  0.46  0.01  0.00  0.41  0.10  0.00
  YS02001658YS02001655    1.00   0.12  0.00  0.00  0.50  0.38  0.00  0.00  0.73  0.00
  YS02001661YS02001658    1.00   0.12  0.00  0.00  0.34  0.54  0.00  0.00  0.75  0.00
  YS02001664YS02001661    1.00   0.11  0.00  0.00  0.56  0.32  0.00  0.00  0.84  0.00
  YS02001745YS02001748    1.00   0.11  0.00  0.00  0.14  0.02  0.00  0.73  0.02  0.00
  YS02001748YS02001751    1.00   0.11  0.00  0.00  0.53  0.36  0.00  0.00  0.72  0.00
  YS02001751YS02001754    1.00   0.11  0.00  0.00  0.34  0.03  0.00  0.52  0.07  0.00
  YS02001754YS02001757    1.00   0.03  0.09  0.00  0.89  0.00  0.00  0.00  0.68  0.00
  YS02001757CaochengTiaoxuchi    1.00   0.00  0.03  0.00  0.09  0.88  0.00  0.00  0.15  0.00
  YS02001759YS02001757    1.00   0.03  0.08  0.00  0.88  0.01  0.00  0.00  0.52  0.00
  YS02001762YS02001759    1.00   0.11  0.00  0.00  0.88  0.00  0.00  0.00  0.03  0.00
  YS02001765YS02001762    1.00   0.11  0.00  0.00  0.89  0.00  0.00  0.00  0.59  0.00
  YS02001767YS02001765    1.00   0.11  0.00  0.00  0.89  0.00  0.00  0.00  0.00  0.00
  YS02001770YS02001767    1.00   0.11  0.00  0.00  0.89  0.00  0.00  0.00  0.00  0.00
  YS02001774YS02001770    1.00   0.12  0.00  0.00  0.78  0.00  0.11  0.00  0.01  0.00
  YS02001779YS02001774    1.00   0.12  0.31  0.00  0.57  0.00  0.00  0.00  0.61  0.00
  YS02001783YS02001784    1.00   0.13  0.00  0.00  0.86  0.00  0.00  0.00  0.55  0.00
  YS02001784YS02001785    1.00   0.13  0.00  0.00  0.87  0.00  0.00  0.00  0.37  0.00
  YS02001786YS02001788    1.00   0.13  0.00  0.00  0.52  0.35  0.00  0.00  0.00  0.00
  YS02001788YS02001790    1.00   0.14  0.00  0.00  0.15  0.72  0.00  0.00  0.61  0.00
  YS02001790YS02001791    1.00   0.14  0.00  0.00  0.00  0.86  0.00  0.00  0.15  0.00
  YS02001791YS02001793    1.00   0.14  0.00  0.00  0.00  0.86  0.00  0.00  0.00  0.00
  YS02001793JiankangQianchi    1.00   0.00  0.14  0.00  0.00  0.86  0.00  0.00  0.08  0.00
  YS02001882YS02001884    1.00   0.12  0.00  0.00  0.87  0.00  0.00  0.00  0.00  0.00
  YS02001884YS02001887    1.00   0.12  0.00  0.00  0.88  0.00  0.00  0.00  0.00  0.00
  YS02001887YS02001890    1.00   0.11  0.00  0.00  0.88  0.00  0.01  0.00  0.00  0.00
  YS02001890YS02001895    1.00   0.11  0.01  0.00  0.87  0.00  0.00  0.00  0.00  0.00
  YS02001895YS02001898    1.00   0.13  0.00  0.00  0.86  0.00  0.01  0.00  0.00  0.00
  YS02001898YS02001901    1.00   0.13  0.00  0.00  0.87  0.00  0.00  0.00  0.00  0.00
  YS02001901YS02001904    1.00   0.13  0.00  0.00  0.87  0.00  0.00  0.00  0.00  0.00
  YS02001904YS02001907    1.00   0.11  0.02  0.00  0.87  0.00  0.00  0.00  0.00  0.00
  YS02001907YS02006553    1.00   0.11  0.01  0.00  0.88  0.00  0.00  0.00  0.00  0.00
  YS02001910YS02001907    1.00   0.11  0.00  0.00  0.88  0.00  0.00  0.01  0.02  0.00
  YS02001915YS02001910    1.00   0.11  0.00  0.00  0.87  0.01  0.00  0.00  0.01  0.00
  YS02001918YS02001915    1.00   0.11  0.01  0.00  0.87  0.00  0.00  0.00  0.70  0.00
  YS02001920YS02001918    1.00   0.12  0.01  0.00  0.87  0.00  0.00  0.00  0.00  0.00
  YS02001923YS02001920    1.00   0.12  0.00  0.00  0.88  0.00  0.00  0.00  0.76  0.00
  YS02001926YS02001923    1.00   0.11  0.01  0.00  0.20  0.00  0.69  0.00  0.00  0.00
  YS02001929YS02001926    1.00   0.11  0.00  0.00  0.89  0.00  0.00  0.00  0.80  0.00
  YS02006553YS02006556    1.00   0.12  0.00  0.00  0.88  0.00  0.00  0.00  0.01  0.00
  YS02006556YS02006558    1.00   0.11  0.00  0.00  0.88  0.00  0.00  0.00  0.00  0.00
  YS02006558YS02006561    1.00   0.13  0.00  0.00  0.18  0.69  0.00  0.00  0.16  0.00
  YS02006561YS02001783    1.00   0.13  0.00  0.00  0.31  0.56  0.00  0.00  0.67  0.00
  YS02163301YS02001633    1.00   0.11  0.01  0.00  0.88  0.00  0.00  0.00  0.00  0.00
  YS02163601YS02164001    1.00   0.12  0.00  0.00  0.88  0.00  0.00  0.00  0.01  0.00
  YS02164001YS02001641    1.00   0.11  0.00  0.00  0.88  0.00  0.00  0.00  0.00  0.00
  2                       1.00   0.00  0.00  0.00  0.00  1.00  0.00  0.00  0.14  0.00
  3                       1.00   0.00  0.00  0.00  0.00  1.00  0.00  0.00  0.10  0.00
  4                       1.00   0.00  1.00  0.00  0.00  0.00  0.00  0.00  0.00  0.00
  5                       1.00   0.00  0.00  0.00  0.05  0.95  0.00  0.00  0.31  0.00
  6                       1.00   0.00  0.00  0.00  0.05  0.95  0.00  0.00  0.32  0.00
  7                       1.00   0.00  1.00  0.00  0.00  0.00  0.00  0.00  0.00  0.00
  
  
  *************************
  Conduit Surcharge Summary
  *************************
  
  ----------------------------------------------------------------------------
                                                           Hours        Hours 
                         --------- Hours Full --------   Above Full   Capacity
  Conduit                Both Ends  Upstream  Dnstream   Normal Flow   Limited
  ----------------------------------------------------------------------------
  YS02001580YS02001583        0.80      0.80      0.81      0.01         0.01
  YS02001583YS02001586        0.80      0.80      0.90      0.01         0.01
  YS02001586YS02001590        0.91      0.91      0.99      0.01         0.01
  YS02001590YS02001593        0.99      0.99      1.01      1.11         0.01
  YS02001593YS02001596        1.00      1.00      1.11      0.01         0.01
  YS02001596YS02001600        1.16      1.16      1.30      0.01         0.01
  YS02001600YS02001601        1.39      1.39      1.67      0.01         0.01
  YS02001601YS02001602        1.60      1.60      1.70      1.34         0.01
  YS02001602YS02001605        1.55      1.55      1.60      2.35         0.01
  YS02001605YS02001607        1.50      1.55      1.50      1.65         1.50
  YS02001607YS02001610        0.90      0.90      0.94      0.01         0.01
  YS02001610YS02001613        0.89      0.89      0.94      0.01         0.01
  YS02001613YS02001616        0.83      0.83      0.89      0.01         0.01
  YS02001616YS02001619        0.82      0.82      0.83      0.01         0.02
  YS02001619YS02001622        0.81      0.82      0.81      1.05         0.80
  YS02001622YS02001625        0.81      0.81      1.04      0.01         0.01
  YS02001625YS02001629        0.66      0.66      1.04      0.01         0.01
  YS02001629YS02163301        1.02      1.02      1.03      0.45         0.45
  YS02001633YS02163601        1.05      1.05      1.08      0.60         0.60
  YS02001641YS02001644        0.83      0.91      0.83      1.72         0.82
  YS02001644YS02001647        0.52      0.52      0.83      0.03         0.01
  YS02001647YS02001649        0.52      0.52      0.55      0.01         0.01
  YS02001649YS02001757        0.53      0.55      0.53      0.45         0.32
  YS02001652YS02001649        0.45      0.45      0.55      0.01         0.01
  YS02001655YS02001652        0.34      0.34      0.43      0.01         0.01
  YS02001658YS02001655        0.24      0.24      0.34      0.01         0.01
  YS02001661YS02001658        0.09      0.09      0.24      0.01         0.01
  YS02001664YS02001661        0.01      0.01      0.13      0.01         0.01
  YS02001745YS02001748        0.01      0.01      0.16      0.01         0.01
  YS02001748YS02001751        0.22      0.22      0.27      0.01         0.01
  YS02001751YS02001754        0.27      0.27      0.35      0.01         0.01
  YS02001754YS02001757        0.36      0.36      0.53      0.01         0.01
  YS02001757CaochengTiaoxuchi        0.01      0.53      0.01      0.64         0.01
  YS02001759YS02001757        0.48      0.48      0.53      0.03         0.04
  YS02001762YS02001759        0.47      0.47      0.48      0.01         0.01
  YS02001765YS02001762        0.44      0.44      0.47      0.01         0.01
  YS02001767YS02001765        0.43      0.43      0.44      0.01         0.02
  YS02001770YS02001767        0.43      0.43      0.43      0.72         0.41
  YS02001774YS02001770        0.42      0.42      0.47      0.01         0.01
  YS02001779YS02001774        0.36      0.36      0.47      0.01         0.01
  YS02001783YS02001784        0.65      0.68      0.65      0.82         0.65
  YS02001784YS02001785        0.54      0.65      0.54      1.10         0.54
  YS02001786YS02001788        0.01      0.54      0.01      0.94         0.01
  YS02001790YS02001791        0.01      0.01      0.01      0.63         0.01
  YS02001882YS02001884        0.61      0.61      0.62      0.01         0.01
  YS02001884YS02001887        0.65      0.65      0.66      0.01         0.01
  YS02001887YS02001890        0.68      0.68      0.69      0.18         0.01
  YS02001890YS02001895        0.60      0.60      0.71      0.01         0.01
  YS02001895YS02001898        0.59      0.59      0.60      0.01         0.01
  YS02001898YS02001901        0.60      0.60      0.65      0.01         0.01
  YS02001901YS02001904        0.64      0.64      0.65      0.01         0.01
  YS02001904YS02001907        0.64      0.64      0.90      0.01         0.01
  YS02001907YS02006553        1.10      1.10      1.18      0.01         0.01
  YS02001910YS02001907        0.71      0.71      0.88      0.01         0.01
  YS02001915YS02001910        0.61      0.61      0.71      0.01         0.01
  YS02001918YS02001915        0.52      0.52      0.61      0.01         0.01
  YS02001920YS02001918        0.52      0.52      0.53      0.01         0.01
  YS02001923YS02001920        0.47      0.47      0.53      0.01         0.01
  YS02001926YS02001923        0.19      0.19      0.21      0.01         0.01
  YS02001929YS02001926        0.02      0.02      0.21      0.01         0.01
  YS02006553YS02006556        0.79      0.79      0.91      0.01         0.01
  YS02006556YS02006558        0.84      0.84      0.93      0.01         0.01
  YS02006558YS02006561        0.56      0.78      0.56      1.05         0.56
  YS02006561YS02001783        0.48      0.48      0.68      0.01         0.01
  YS02163301YS02001633        1.03      1.03      1.07      0.01         0.01
  YS02163601YS02164001        0.93      0.93      1.08      0.36         0.01
  YS02164001YS02001641        0.91      0.93      0.91      0.89         0.65
  5                           0.01      0.01      0.01      0.01         0.01
  6                           0.01      0.01      0.01      0.01         0.01
  

  Analysis begun on:  Thu Sep  7 11:14:29 2023
  Analysis ended on:  Thu Sep  7 11:14:55 2023
  Total elapsed time: 00:00:26