
  OWA STORM WATER MANAGEMENT MODEL - VERSION v5.1.14 (OWA 2022-07-31)
  --------------------------------------------------------------

  WARNING 04: minimum elevation drop used for Conduit WS02004404WS02004405
  WARNING 03: negative offset ignored for Link YS02001904YS02001907
  
  *********************************************************
  NOTE: The summary statistics displayed in this report are
  based on results found at every computational time step,  
  not just on results from each reporting time step.
  *********************************************************
  
  ****************
  Analysis Options
  ****************
  Flow Units ............... LPS
  Process Models:
    Rainfall/Runoff ........ YES
    RDII ................... NO
    Snowmelt ............... NO
    Groundwater ............ NO
    Flow Routing ........... YES
    Ponding Allowed ........ NO
    Water Quality .......... NO
  Infiltration Method ...... HORTON
  Flow Routing Method ...... DYNWAVE
  Surcharge Method ......... EXTRAN
  Starting Date ............ 08/28/2015 08:00:00
  Ending Date .............. 08/28/2015 16:00:00
  Antecedent Dry Days ...... 8.0
  Report Time Step ......... 00:01:00
  Wet Time Step ............ 00:01:00
  Dry Time Step ............ 00:01:00
  Routing Time Step ........ 30.00 sec
  Variable Time Step ....... YES
  Maximum Trials ........... 8
  Number of Threads ........ 4
  Head Tolerance ........... 0.001500 m
  
  
  **************************        Volume         Depth
  Runoff Quantity Continuity     hectare-m            mm
  **************************     ---------       -------
  Total Precipitation ......         6.147       185.324
  Evaporation Loss .........         0.000         0.000
  Infiltration Loss ........         0.109         3.275
  Surface Runoff ...........         6.007       181.095
  Final Storage ............         0.033         0.998
  Continuity Error (%) .....        -0.024
  
  
  **************************        Volume        Volume
  Flow Routing Continuity        hectare-m      10^6 ltr
  **************************     ---------     ---------
  Dry Weather Inflow .......         0.025         0.251
  Wet Weather Inflow .......         6.007        60.067
  Groundwater Inflow .......         0.000         0.000
  RDII Inflow ..............         0.000         0.000
  External Inflow ..........         0.083         0.834
  External Outflow .........         2.727        27.270
  Flooding Loss ............         3.612        36.117
  Evaporation Loss .........         0.000         0.000
  Exfiltration Loss ........         0.000         0.000
  Initial Stored Volume ....         0.248         2.479
  Final Stored Volume ......         0.034         0.339
  Continuity Error (%) .....        -0.151
  
  
  *************************
  Highest Continuity Errors
  *************************
  Node WS02006242 (9.87%)
  Node WS02004406 (8.71%)
  Node WS02004413 (6.51%)
  Node WS02006249 (5.66%)
  Node WS02004405 (5.17%)
  
  
  ***************************
  Time-Step Critical Elements
  ***************************
  Link 3 (98.29%)
  
  
  ********************************
  Highest Flow Instability Indexes
  ********************************
  Link YS02006558YS02006561 (8)
  Link YS02001580YS02001583 (7)
  Link YS02001607YS02001610 (7)
  Link YS02001602YS02001605 (6)
  Link YS02001619YS02001622 (6)
  
  
  *************************
  Routing Time Step Summary
  *************************
  Minimum Time Step           :     0.01 sec
  Average Time Step           :     1.61 sec
  Maximum Time Step           :     4.83 sec
  Percent in Steady State     :    -0.00
  Average Iterations per Step :     2.60
  Percent Not Converging      :     6.57
  
  
  ***************************
  Subcatchment Runoff Summary
  ***************************
  
  ------------------------------------------------------------------------------------------------------------------------------
                            Total      Total      Total      Total     Imperv       Perv      Total       Total     Peak  Runoff
                           Precip      Runon       Evap      Infil     Runoff     Runoff     Runoff      Runoff   Runoff   Coeff
  Subcatchment                 mm         mm         mm         mm         mm         mm         mm    10^6 ltr      LPS
  ------------------------------------------------------------------------------------------------------------------------------
  sub60                    232.27       0.00       0.00       1.95     203.24      25.93     229.17        3.01  2173.87   0.987
  sub61                    232.27       0.00       0.00       2.83     191.70      36.66     228.36        4.19  3028.83   0.983
  sub62                    232.27       0.00       0.00       1.30     212.44      17.29     229.73        6.29  4358.65   0.989
  sub63                    232.27       0.00       0.00       5.27     163.98      62.10     226.08        5.13  3564.97   0.973
  sub64                    232.27       0.00       0.00       2.66     196.26      32.19     228.45        5.49  3666.76   0.984
  sub65                    232.27       0.00       0.00       2.30     200.85      27.90     228.75        6.30  4128.78   0.985
  sub66                    232.27       0.00       0.00       6.62     163.85      60.74     224.60       10.47  5999.04   0.967
  sub67                     51.25       0.00       0.00       1.14      45.90       2.97      48.87        0.91   620.08   0.954
  sub68                     51.25       0.00       0.00       2.11      42.88       5.07      47.95        1.32   802.53   0.936
  sub69                    232.27       0.00       0.00       2.16     197.35      32.69     230.04        8.52  5501.10   0.990
  sub70                    232.27       0.00       0.00       7.35     153.15      71.63     224.78        6.49  3436.46   0.968
  sub71                     51.25       0.00       0.00       1.20      45.82       2.90      48.72        1.27   681.45   0.951
  sub72                     51.25       0.00       0.00       1.07      46.26       2.52      48.78        0.67   324.82   0.952
  
  
  ******************
  Node Depth Summary
  ******************
  
  ---------------------------------------------------------------------------------
                                 Average  Maximum  Maximum  Time of Max    Reported
                                   Depth    Depth      HGL   Occurrence   Max Depth
  Node                 Type       Meters   Meters   Meters  days hr:min      Meters
  ---------------------------------------------------------------------------------
  WS02003060           JUNCTION     0.07     0.09     5.02     0  06:04        0.09
  WS02003066           JUNCTION     0.03     0.09     5.65     0  05:00        0.09
  WS02003067           JUNCTION     0.10     0.33     5.65     0  04:59        0.33
  WS02003069           JUNCTION     0.08     0.10     4.68     0  06:56        0.10
  WS02003072           JUNCTION     0.13     0.15     4.52     0  06:59        0.15
  WS02003073           JUNCTION     0.06     0.07     4.14     0  07:01        0.07
  WS02004401           JUNCTION     0.26     0.36     6.36     0  04:44        0.36
  WS02004402           JUNCTION     0.29     0.40     6.36     0  04:28        0.40
  WS02004403           JUNCTION     0.32     0.43     6.36     0  04:21        0.43
  WS02004404           JUNCTION     0.39     0.51     6.36     0  04:20        0.51
  WS02004405           JUNCTION     0.39     0.51     6.36     0  04:27        0.51
  WS02004406           JUNCTION     0.41     0.53     6.36     0  04:47        0.53
  WS02004407           JUNCTION     0.02     0.05     6.36     0  05:13        0.05
  WS02004409           JUNCTION     0.05     0.12     5.89     0  05:45        0.12
  WS02004410           JUNCTION     0.06     0.17     5.89     0  05:06        0.17
  WS02004411           JUNCTION     0.07     0.20     5.88     0  04:42        0.20
  WS02004412           JUNCTION     0.09     0.24     5.88     0  04:31        0.24
  WS02004413           JUNCTION     0.15     0.41     5.88     0  04:45        0.41
  WS02006109           JUNCTION     0.33     0.35     6.96     0  03:26        0.35
  WS02006110           JUNCTION     0.36     0.38     6.96     0  03:52        0.38
  WS02006111           JUNCTION     0.05     0.05     6.76     0  07:34        0.05
  WS02006112           JUNCTION     0.39     0.48     6.36     0  05:48        0.48
  WS02006113           JUNCTION     0.06     0.07     6.96     0  04:21        0.07
  WS02006115           JUNCTION     0.15     0.22     6.36     0  05:22        0.22
  WS02006116           JUNCTION     0.23     0.32     6.36     0  04:55        0.32
  WS02006228           JUNCTION     0.30     0.31     6.96     0  02:57        0.31
  WS02006229           JUNCTION     0.26     0.27     6.96     0  02:41        0.27
  WS02006230           JUNCTION     0.21     0.22     6.97     0  03:03        0.22
  WS02006231           JUNCTION     0.00     0.00     7.12     0  00:00        0.00
  WS02006232           JUNCTION     0.00     0.00     7.04     0  00:00        0.00
  WS02006234           JUNCTION     0.00     0.00     7.16     0  00:00        0.00
  WS02006235           JUNCTION     0.01     0.01     7.17     0  08:00        0.01
  WS02006238           JUNCTION     0.02     0.03     7.17     0  08:00        0.03
  WS02006239           JUNCTION     0.01     0.01     7.22     0  01:58        0.01
  WS02006240           JUNCTION     0.01     0.01     7.31     0  08:00        0.01
  WS02006242           JUNCTION     0.03     0.04     7.31     0  08:00        0.04
  WS02006243           JUNCTION     0.01     0.01     7.43     0  01:26        0.01
  WS02006245           JUNCTION     0.01     0.01     7.50     0  08:00        0.01
  WS02006247           JUNCTION     0.01     0.02     7.52     0  01:01        0.02
  WS02006248           JUNCTION     0.01     0.01     7.60     0  00:39        0.01
  WS02006249           JUNCTION     0.02     0.02     7.62     0  08:00        0.02
  WS02006251           JUNCTION     0.01     0.01     7.68     0  00:06        0.01
  WS02006252           JUNCTION     0.00     0.00     8.24     0  00:00        0.00
  WS02006256           JUNCTION     0.00     0.00     6.94     0  08:00        0.00
  WSF200               JUNCTION     0.01     0.05     5.28     0  05:14        0.05
  YS02001580           JUNCTION     0.33     1.05     9.59     0  01:30        0.80
  YS02001583           JUNCTION     0.37     1.14     9.64     0  01:30        0.83
  YS02001586           JUNCTION     0.54     1.13     9.30     0  01:30        1.13
  YS02001590           JUNCTION     0.69     1.39     9.25     0  01:30        1.37
  YS02001593           JUNCTION     0.62     1.32     9.18     0  01:30        1.28
  YS02001596           JUNCTION     0.81     1.68     9.10     0  01:30        1.65
  YS02001600           JUNCTION     0.93     1.87     9.00     0  01:30        1.86
  YS02001601           JUNCTION     1.13     2.06     8.90     0  01:29        2.06
  YS02001602           JUNCTION     1.00     1.87     8.77     0  01:38        1.87
  YS02001605           JUNCTION     0.93     1.78     8.68     0  01:42        1.78
  YS02001607           JUNCTION     0.86     1.65     8.49     0  01:48        1.64
  YS02001610           JUNCTION     0.90     1.68     8.48     0  01:39        1.68
  YS02001613           JUNCTION     0.86     1.67     8.51     0  02:06        1.66
  YS02001616           JUNCTION     0.80     1.61     8.52     0  01:58        1.61
  YS02001619           JUNCTION     0.78     1.61     8.54     0  01:58        1.61
  YS02001622           JUNCTION     0.76     1.58     8.49     0  02:08        1.58
  YS02001625           JUNCTION     1.00     1.78     8.38     0  01:39        1.78
  YS02001629           JUNCTION     0.93     1.85     8.40     0  01:42        1.85
  YS02001633           JUNCTION     1.02     2.08     8.53     0  01:42        2.08
  YS02001641           JUNCTION     0.95     2.01     8.45     0  01:42        2.01
  YS02001644           JUNCTION     0.93     1.92     8.35     0  01:46        1.92
  YS02001647           JUNCTION     0.70     1.82     8.43     0  01:48        1.79
  YS02001649           JUNCTION     0.78     2.05     8.44     0  02:06        2.05
  YS02001652           JUNCTION     0.65     2.16     8.76     0  01:47        2.16
  YS02001655           JUNCTION     0.55     2.20     9.05     0  01:47        2.20
  YS02001658           JUNCTION     0.45     2.30     9.44     0  01:47        2.30
  YS02001661           JUNCTION     0.44     2.46     9.86     0  02:08        2.46
  YS02001664           JUNCTION     0.27     2.31    10.23     0  02:08        2.31
  YS02001745           JUNCTION     0.26     2.03     9.54     0  02:12        2.03
  YS02001748           JUNCTION     0.39     2.18     9.26     0  02:12        2.18
  YS02001751           JUNCTION     0.45     2.12     9.00     0  02:12        2.12
  YS02001754           JUNCTION     0.57     2.14     8.75     0  02:12        2.13
  YS02001757           JUNCTION     0.78     2.21     8.47     0  02:08        2.21
  YS02001759           JUNCTION     0.73     2.21     8.57     0  02:08        2.21
  YS02001762           JUNCTION     0.71     2.15     8.55     0  02:08        2.15
  YS02001765           JUNCTION     0.69     2.10     8.55     0  02:08        2.10
  YS02001767           JUNCTION     0.67     2.03     8.52     0  02:08        2.03
  YS02001770           JUNCTION     0.68     1.95     8.44     0  01:58        1.95
  YS02001774           JUNCTION     0.75     2.00     8.42     0  02:08        2.00
  YS02001779           JUNCTION     0.55     1.68     8.37     0  01:43        1.68
  YS02001783           JUNCTION     0.31     1.64     7.78     0  01:48        1.23
  YS02001784           JUNCTION     0.32     1.35     7.42     0  01:48        1.11
  YS02001786           JUNCTION     0.27     1.13     7.16     0  01:48        0.87
  YS02001788           JUNCTION     0.19     0.62     6.60     0  01:54        0.62
  YS02001790           JUNCTION     0.23     0.72     6.36     0  01:54        0.72
  YS02001791           JUNCTION     0.15     0.44     5.91     0  01:51        0.42
  YS02001793           JUNCTION     0.07     0.22     5.06     0  01:51        0.22
  YS02001882           JUNCTION     0.38     1.83     8.55     0  01:47        1.63
  YS02001884           JUNCTION     0.47     1.93     8.55     0  01:47        1.73
  YS02001887           JUNCTION     0.55     1.94     8.48     0  01:47        1.80
  YS02001890           JUNCTION     0.58     1.81     8.32     0  01:47        1.81
  YS02001895           JUNCTION     0.35     1.75     8.50     0  01:47        1.56
  YS02001898           JUNCTION     0.36     1.77     8.51     0  01:47        1.55
  YS02001901           JUNCTION     0.47     1.80     8.40     0  01:47        1.67
  YS02001904           JUNCTION     0.45     1.69     8.32     0  01:47        1.63
  YS02001907           JUNCTION     0.76     1.96     8.25     0  01:47        1.96
  YS02001910           JUNCTION     0.56     2.02     8.52     0  01:47        1.84
  YS02001915           JUNCTION     0.38     2.00     8.72     0  01:47        1.69
  YS02001918           JUNCTION     0.21     1.81     8.88     0  01:48        1.38
  YS02001920           JUNCTION     0.30     2.10     9.11     0  01:49        1.45
  YS02001923           JUNCTION     0.17     2.03     9.29     0  01:49        1.21
  YS02001926           JUNCTION     0.20     1.90     9.35     0  01:48        1.03
  YS02001929           JUNCTION     0.11     1.78     9.47     0  01:49        0.79
  YS02006553           JUNCTION     0.76     2.08     8.36     0  01:48        1.97
  YS02006556           JUNCTION     0.73     2.17     8.48     0  01:48        1.95
  YS02006558           JUNCTION     0.78     2.24     8.51     0  01:48        1.99
  YS02006561           JUNCTION     0.19     1.46     8.12     0  01:48        0.89
  YS02163301           JUNCTION     0.96     1.97     8.49     0  01:42        1.97
  YS02163601           JUNCTION     1.03     2.08     8.48     0  01:42        2.08
  YS02164001           JUNCTION     0.95     2.06     8.52     0  01:42        2.06
  CC-1                 OUTFALL      0.12     0.73     0.73     0  00:00        0.38
  CC-2                 OUTFALL      0.12     0.73     0.73     0  00:00        0.38
  JK-1                 OUTFALL      0.07     1.00     1.00     0  00:00        0.20
  JK-2                 OUTFALL      0.07     1.00     1.00     0  00:00        0.20
  WSC                  OUTFALL      0.06     0.07     0.74     0  07:01        0.07
  CC-storage           STORAGE      0.12     0.80     6.30     0  00:00        0.38
  JK-storage           STORAGE      0.07     3.00     3.80     0  00:00        0.20
  
  
  *******************
  Node Inflow Summary
  *******************
  
  -------------------------------------------------------------------------------------------------
                                  Maximum  Maximum                  Lateral       Total        Flow
                                  Lateral    Total  Time of Max      Inflow      Inflow     Balance
                                   Inflow   Inflow   Occurrence      Volume      Volume       Error
  Node                 Type           LPS      LPS  days hr:min    10^6 ltr    10^6 ltr     Percent
  -------------------------------------------------------------------------------------------------
  WS02003060           JUNCTION     16.53    28.24     0  05:14       0.476       0.648       0.306
  WS02003066           JUNCTION      0.00    11.71     0  04:46           0       0.173       0.656
  WS02003067           JUNCTION      0.00    11.71     0  04:49           0       0.177       2.316
  WS02003069           JUNCTION      0.32    28.56     0  06:04     0.00922       0.655       0.521
  WS02003072           JUNCTION      0.00    28.56     0  06:57           0       0.651       0.949
  WS02003073           JUNCTION      1.82    30.38     0  06:59      0.0524       0.698       0.697
  WS02004401           JUNCTION      0.00    11.55     0  01:26           0       0.273       3.725
  WS02004402           JUNCTION      0.00    11.54     0  04:12           0       0.263       3.970
  WS02004403           JUNCTION      0.00    11.64     0  01:16           0       0.253       4.015
  WS02004404           JUNCTION      0.16    11.79     0  04:01     0.00467       0.248       3.371
  WS02004405           JUNCTION      0.04    11.87     0  03:57      0.0011       0.241       5.457
  WS02004406           JUNCTION      0.00    11.75     0  04:09           0       0.228       9.537
  WS02004407           JUNCTION      0.00    11.71     0  04:53           0       0.208       0.483
  WS02004409           JUNCTION      0.00    11.71     0  05:13           0       0.207       1.086
  WS02004410           JUNCTION      0.00    11.71     0  04:42           0       0.205       1.906
  WS02004411           JUNCTION      0.00    11.74     0  04:18           0       0.201       2.583
  WS02004412           JUNCTION      0.00    11.84     0  04:09           0       0.196       3.672
  WS02004413           JUNCTION      0.00    12.01     0  04:06           0       0.189       6.959
  WS02006109           JUNCTION      1.23    11.51     0  02:21      0.0354        0.32       3.069
  WS02006110           JUNCTION      0.00    11.51     0  03:02           0        0.31       2.710
  WS02006111           JUNCTION      0.00    11.51     0  05:32           0       0.301       0.183
  WS02006112           JUNCTION      0.00    11.51     0  04:21           0         0.3       4.865
  WS02006113           JUNCTION      0.00    11.51     0  03:42           0       0.302       0.389
  WS02006115           JUNCTION      0.00    11.82     0  01:53           0       0.287       2.336
  WS02006116           JUNCTION      0.00    12.06     0  01:53           0        0.28       2.659
  WS02006228           JUNCTION      0.00    10.28     0  01:59           0        0.29       1.978
  WS02006229           JUNCTION      0.00    10.54     0  00:16           0       0.293       1.040
  WS02006230           JUNCTION     10.28    10.28     0  00:00       0.296       0.296       0.998
  WS02006231           JUNCTION      0.00     0.00     0  00:00           0           0       0.000 ltr
  WS02006232           JUNCTION      0.00     0.00     0  00:00           0           0       0.000 ltr
  WS02006234           JUNCTION      0.00     0.00     0  00:00           0           0       0.000 ltr
  WS02006235           JUNCTION      0.00     0.08     0  08:00           0     0.00163       0.634
  WS02006238           JUNCTION      0.00     0.08     0  08:00           0     0.00167       2.308
  WS02006239           JUNCTION      0.00     0.08     0  08:00           0     0.00169       1.273
  WS02006240           JUNCTION      0.00     0.08     0  08:00           0     0.00175       3.577
  WS02006242           JUNCTION      0.00     0.09     0  01:31           0     0.00194      10.951
  WS02006243           JUNCTION      0.00     0.08     0  07:59           0     0.00197       1.224
  WS02006245           JUNCTION      0.00     0.08     0  07:57           0     0.00202       2.778
  WS02006247           JUNCTION      0.00     0.08     0  07:59           0     0.00207       2.282
  WS02006248           JUNCTION      0.00     0.08     0  07:54           0     0.00208       0.717
  WS02006249           JUNCTION      0.00     0.09     0  00:08           0     0.00221       5.999
  WS02006251           JUNCTION      0.08     0.08     0  00:00     0.00222     0.00222       0.535
  WS02006252           JUNCTION      0.00     0.00     0  00:00           0           0       0.000 ltr
  WS02006256           JUNCTION      0.00     0.08     0  08:00           0     0.00162       0.407
  WSF200               JUNCTION      0.00    11.71     0  05:00           0       0.172       0.251
  YS02001580           JUNCTION      0.00    62.54     0  01:29           0     0.00406       0.109
  YS02001583           JUNCTION      0.00    96.03     0  01:29           0       0.016      -2.830
  YS02001586           JUNCTION   3436.46  3436.46     0  02:14        6.49        6.51       0.014
  YS02001590           JUNCTION      0.00   317.78     0  01:49           0        2.32      -0.045
  YS02001593           JUNCTION      0.00   317.75     0  01:49           0        2.32       0.008
  YS02001596           JUNCTION      0.00   317.75     0  01:49           0        2.32      -0.004
  YS02001600           JUNCTION      0.00   317.75     0  01:45           0        2.32       0.014
  YS02001601           JUNCTION   5501.10  5818.60     0  02:13        8.52        10.8       0.008
  YS02001602           JUNCTION      0.00   511.15     0  03:04           0        3.39       0.013
  YS02001605           JUNCTION      0.00   511.19     0  03:04           0        3.11       0.020
  YS02001607           JUNCTION      0.00   511.24     0  03:04           0        3.11       0.055
  YS02001610           JUNCTION      0.00   952.82     0  02:08           0        4.77       0.050
  YS02001613           JUNCTION      0.00   616.77     0  02:08           0        3.43       0.045
  YS02001616           JUNCTION      0.00   616.77     0  02:08           0        3.43       0.010
  YS02001619           JUNCTION   5999.04  5999.04     0  02:14        10.5        12.2      -0.002
  YS02001622           JUNCTION      0.00  1053.50     0  02:05           0        7.21      -0.003
  YS02001625           JUNCTION      0.00  1505.17     0  02:09           0         8.3       0.111
  YS02001629           JUNCTION      0.00  1138.20     0  02:21           0        5.91       0.018
  YS02001633           JUNCTION   4128.98  4128.98     0  02:13         6.3        10.2       0.032
  YS02001641           JUNCTION      0.00  1335.81     0  01:39           0        7.41       0.037
  YS02001644           JUNCTION   3666.80  5418.42     0  02:13        5.49        13.7       0.023
  YS02001647           JUNCTION      0.00  1701.40     0  01:39           0        8.67      -0.000
  YS02001649           JUNCTION      0.00  2659.64     0  02:13           0        12.8       0.004
  YS02001652           JUNCTION      0.00  2428.58     0  02:17           0        4.87      -0.039
  YS02001655           JUNCTION      0.15  2731.44     0  02:16     0.00443        4.98       0.017
  YS02001658           JUNCTION      0.00  2783.08     0  02:15           0        4.99      -0.015
  YS02001661           JUNCTION      0.00  2783.08     0  02:15           0        4.99       0.007
  YS02001664           JUNCTION   3564.97  3564.97     0  02:13        5.13        5.13      -0.005
  YS02001745           JUNCTION   2173.88  2173.88     0  02:13        3.01        3.01       0.014
  YS02001748           JUNCTION      0.04  2174.14     0  02:13      0.0013        3.01      -0.025
  YS02001751           JUNCTION      0.01  2173.99     0  02:13    0.000317        3.01       0.020
  YS02001754           JUNCTION      0.26  2174.53     0  02:13     0.00749        3.02      -0.051
  YS02001757           JUNCTION      0.00  3717.37     0  02:13           0        20.5      -0.001
  YS02001759           JUNCTION   3028.87  3028.87     0  02:13        4.19        6.82      -0.006
  YS02001762           JUNCTION      0.00   784.48     0  02:31           0        3.05      -0.006
  YS02001765           JUNCTION      0.00   784.08     0  02:31           0        3.05      -0.004
  YS02001767           JUNCTION      0.54   783.84     0  02:31      0.0154        3.05      -0.010
  YS02001770           JUNCTION   4358.80  5077.04     0  02:13         6.3        6.76      -0.012
  YS02001774           JUNCTION      0.00   851.49     0  02:08           0        1.58       0.047
  YS02001779           JUNCTION      0.01   851.38     0  02:09    0.000144        1.54      -0.025
  YS02001783           JUNCTION      0.00  1157.82     0  01:50           0        3.57       0.004
  YS02001784           JUNCTION      1.06  1158.89     0  01:49      0.0305         3.6       0.011
  YS02001786           JUNCTION      0.06  1158.84     0  01:50     0.00162         3.6       0.016
  YS02001788           JUNCTION      0.07  1162.48     0  01:49     0.00204        3.61       0.008
  YS02001790           JUNCTION      0.15  1166.27     0  01:50     0.00446        3.61       0.056
  YS02001791           JUNCTION      0.00  1277.21     0  01:54           0        3.61      -0.038
  YS02001793           JUNCTION      0.00  1238.63     0  01:51           0        3.61       0.004
  YS02001882           JUNCTION      0.00    87.20     0  01:47           0      0.0127       3.327
  YS02001884           JUNCTION      0.00   142.20     0  01:47           0      0.0485       5.155
  YS02001887           JUNCTION    620.53   620.56     0  01:50       0.922       0.955       0.451
  YS02001890           JUNCTION      0.00   620.56     0  01:50           0       0.915       0.537
  YS02001895           JUNCTION      0.00   553.02     0  01:48           0       0.891       0.170
  YS02001898           JUNCTION      0.00   551.53     0  01:48           0        0.89      -0.031
  YS02001901           JUNCTION      0.00   549.42     0  01:48           0       0.892       0.335
  YS02001904           JUNCTION      0.00   550.05     0  01:48           0       0.897       0.287
  YS02001907           JUNCTION      0.00  1621.42     0  01:50           0        2.92       0.604
  YS02001910           JUNCTION      0.00  1096.46     0  01:50           0        2.03       0.341
  YS02001915           JUNCTION    681.47  1096.39     0  01:50        1.27        2.08       0.057
  YS02001918           JUNCTION      0.00   632.03     0  01:48           0       0.837      -0.006
  YS02001920           JUNCTION      2.87   639.80     0  01:48      0.0827       0.814       0.103
  YS02001923           JUNCTION      0.04   833.97     0  01:48     0.00109       0.715      -0.065
  YS02001926           JUNCTION      0.05  1102.99     0  01:48      0.0015       0.694      -0.157
  YS02001929           JUNCTION    324.82   883.57     0  01:49       0.671       0.677      -0.029
  YS02006553           JUNCTION      0.00   792.82     0  02:07           0        2.28       0.514
  YS02006556           JUNCTION      0.00   793.07     0  02:07           0        2.29       0.354
  YS02006558           JUNCTION    803.41  1182.93     0  01:48        1.34         3.6       0.101
  YS02006561           JUNCTION      0.00  1183.05     0  01:48           0        3.57      -0.006
  YS02163301           JUNCTION      0.00  1138.20     0  02:21           0        5.92       0.026
  YS02163601           JUNCTION      0.11  1336.60     0  01:39     0.00317         7.4       0.068
  YS02164001           JUNCTION      0.00  1336.61     0  01:39           0         7.4       0.031
  CC-1                 OUTFALL       0.00 16161.72     0  00:00           0        11.1       0.000
  CC-2                 OUTFALL       0.00 17045.67     0  00:00           0        11.6       0.000
  JK-1                 OUTFALL       0.00  8590.66     0  00:00           0        1.92       0.000
  JK-2                 OUTFALL       0.00  8788.77     0  00:00           0        1.95       0.000
  WSC                  OUTFALL       0.00    30.38     0  07:01           0       0.693       0.000
  CC-storage           STORAGE       0.00  3490.25     0  02:12           0        22.7      -0.266
  JK-storage           STORAGE       0.00  1271.57     0  01:51           0        3.76      -2.686
  
  
  **********************
  Node Surcharge Summary
  **********************
  
  Surcharging occurs when water rises above the top of the highest conduit.
  ---------------------------------------------------------------------
                                               Max. Height   Min. Depth
                                   Hours       Above Crown    Below Rim
  Node                 Type      Surcharged         Meters       Meters
  ---------------------------------------------------------------------
  YS02001580           JUNCTION        1.54          0.450        0.000
  YS02001583           JUNCTION        1.54          0.500        0.000
  YS02001586           JUNCTION        1.65          0.510        0.000
  YS02001590           JUNCTION        1.72          0.736        0.014
  YS02001593           JUNCTION        1.71          0.701        0.139
  YS02001596           JUNCTION        1.82          0.952        0.118
  YS02001600           JUNCTION        1.93          1.190        0.000
  YS02001601           JUNCTION        2.18          1.440        0.000
  YS02001602           JUNCTION        2.09          1.270        0.000
  YS02001605           JUNCTION        2.05          1.180        0.000
  YS02001607           JUNCTION        1.64          0.645        0.035
  YS02001610           JUNCTION        1.67          0.680        0.000
  YS02001613           JUNCTION        1.64          0.669        0.031
  YS02001616           JUNCTION        1.60          0.610        0.000
  YS02001619           JUNCTION        1.59          0.610        0.000
  YS02001622           JUNCTION        1.58          0.583        0.037
  YS02001625           JUNCTION        1.75          0.780        0.000
  YS02001629           JUNCTION        1.48          0.470        0.000
  YS02001633           JUNCTION        1.75          1.060        0.000
  YS02001641           JUNCTION        1.65          1.012        0.088
  YS02001644           JUNCTION        1.59          0.920        0.000
  YS02001647           JUNCTION        1.20          0.817        0.083
  YS02001649           JUNCTION        1.26          1.050        0.000
  YS02001652           JUNCTION        1.08          1.130        0.000
  YS02001655           JUNCTION        0.94          1.200        0.000
  YS02001658           JUNCTION        0.76          1.300        0.000
  YS02001661           JUNCTION        0.48          1.390        0.000
  YS02001664           JUNCTION        0.28          1.310        0.000
  YS02001745           JUNCTION        0.24          1.027        0.323
  YS02001748           JUNCTION        0.61          1.101        0.089
  YS02001751           JUNCTION        0.81          1.118        0.082
  YS02001754           JUNCTION        0.95          1.091        0.059
  YS02001757           JUNCTION        1.23          1.210        0.000
  YS02001759           JUNCTION        1.15          1.210        0.000
  YS02001762           JUNCTION        1.13          1.150        0.000
  YS02001765           JUNCTION        1.10          1.100        0.000
  YS02001767           JUNCTION        1.08          1.030        0.000
  YS02001770           JUNCTION        1.07          0.920        0.000
  YS02001774           JUNCTION        1.14          1.002        0.048
  YS02001779           JUNCTION        0.98          0.680        0.000
  YS02001783           JUNCTION        0.46          0.842        0.758
  YS02001784           JUNCTION        0.44          0.552        0.938
  YS02001786           JUNCTION        0.34          0.328        1.102
  YS02001882           JUNCTION        0.41          0.830        0.000
  YS02001884           JUNCTION        0.42          0.870        0.000
  YS02001887           JUNCTION        0.45          0.889        0.061
  YS02001890           JUNCTION        0.46          0.760        0.000
  YS02001895           JUNCTION        0.39          0.750        0.000
  YS02001898           JUNCTION        0.39          0.740        0.000
  YS02001901           JUNCTION        0.44          0.796        0.074
  YS02001904           JUNCTION        0.42          0.687        0.163
  YS02001907           JUNCTION        0.63          0.950        0.000
  YS02001910           JUNCTION        0.48          1.017        0.083
  YS02001915           JUNCTION        0.40          1.000        0.000
  YS02001918           JUNCTION        0.33          0.810        0.000
  YS02001920           JUNCTION        0.34          1.098        0.042
  YS02001923           JUNCTION        0.01          0.820        0.000
  YS02001926           JUNCTION        0.02          0.900        0.000
  YS02001929           JUNCTION        0.01          0.780        0.000
  YS02006553           JUNCTION        0.65          1.076        0.114
  YS02006556           JUNCTION        0.56          1.128        0.222
  YS02006558           JUNCTION        0.55          1.140        0.260
  YS02006561           JUNCTION        0.29          0.665        0.485
  YS02163301           JUNCTION        1.73          0.971        0.059
  YS02163601           JUNCTION        1.78          1.080        0.000
  YS02164001           JUNCTION        1.66          1.061        0.039
  
  
  *********************
  Node Flooding Summary
  *********************
  
  Flooding refers to all water that overflows a node, whether it ponds or not.
  --------------------------------------------------------------------------
                                                             Total   Maximum
                                 Maximum   Time of Max       Flood    Ponded
                        Hours       Rate    Occurrence      Volume     Depth
  Node                 Flooded       LPS   days hr:min    10^6 ltr    Meters
  --------------------------------------------------------------------------
  YS02001580              0.01     47.25      0  01:30       0.000     0.000
  YS02001583              0.01     41.47      0  01:30       0.000     0.000
  YS02001586              1.40   3118.91      0  02:14       4.170     0.000
  YS02001600              0.01      0.73      0  01:30       0.000     0.000
  YS02001601              1.58   5420.30      0  02:13       7.446     0.000
  YS02001602              1.29     61.85      0  01:48       0.278     0.000
  YS02001605              0.01      0.09      0  01:42       0.000     0.000
  YS02001610              1.23    952.68      0  02:08       2.993     0.000
  YS02001616              0.01      1.77      0  02:44       0.000     0.000
  YS02001619              0.56   4329.39      0  02:14       3.381     0.000
  YS02001625              1.10   1505.10      0  02:09       4.348     0.000
  YS02001629              0.56    686.41      0  02:13       0.877     0.000
  YS02001633              0.25   2085.51      0  02:13       0.869     0.000
  YS02001644              0.73   5417.87      0  02:13       5.810     0.000
  YS02001649              0.21   1812.95      0  02:13       0.778     0.000
  YS02001652              0.01     23.08      0  01:47       0.000     0.000
  YS02001655              0.13    302.86      0  02:16       0.116     0.000
  YS02001658              0.10    248.85      0  01:47       0.017     0.000
  YS02001661              0.01      0.33      0  02:08       0.000     0.000
  YS02001664              0.09    780.90      0  02:13       0.138     0.000
  YS02001757              0.01      0.09      0  02:08       0.000     0.000
  YS02001759              0.09    768.94      0  02:13       0.132     0.000
  YS02001762              0.01      0.26      0  02:10       0.000     0.000
  YS02001765              0.01      0.07      0  02:08       0.000     0.000
  YS02001767              0.01      0.03      0  02:08       0.000     0.000
  YS02001770              0.39   4224.81      0  02:13       2.589     0.000
  YS02001779              0.66    851.27      0  02:09       1.518     0.000
  YS02001882              0.01     35.58      0  01:47       0.000     0.000
  YS02001884              0.01     37.89      0  01:47       0.000     0.000
  YS02001890              0.09    148.76      0  01:47       0.019     0.000
  YS02001895              0.01     21.41      0  01:47       0.000     0.000
  YS02001898              0.01    247.35      0  01:47       0.000     0.000
  YS02001907              0.27   1259.09      0  01:50       0.629     0.000
  YS02001915              0.01    205.57      0  01:47       0.000     0.000
  YS02001918              0.01    186.60      0  01:49       0.002     0.000
  YS02001923              0.01    245.39      0  01:49       0.001     0.000
  YS02001926              0.01    864.15      0  01:49       0.004     0.000
  YS02001929              0.01    683.24      0  01:49       0.002     0.000
  YS02163601              0.01      0.92      0  01:42       0.000     0.000
  
  
  **********************
  Storage Volume Summary
  **********************
  
  --------------------------------------------------------------------------------------------------
                         Average     Avg  Evap Exfil       Maximum     Max    Time of Max    Maximum
                          Volume    Pcnt  Pcnt  Pcnt        Volume    Pcnt     Occurrence    Outflow
  Storage Unit           1000 m3    Full  Loss  Loss       1000 m3    Full    days hr:min        LPS
  --------------------------------------------------------------------------------------------------
  CC-storage               0.332       5     0     0         2.229      35       0  00:00   32996.09
  JK-storage               0.004       1     0     0         0.151      52       0  00:00   17379.43
  
  
  ***********************
  Outfall Loading Summary
  ***********************
  
  -----------------------------------------------------------
                         Flow       Avg       Max       Total
                         Freq      Flow      Flow      Volume
  Outfall Node           Pcnt       LPS       LPS    10^6 ltr
  -----------------------------------------------------------
  CC-1                 100.00    824.65  16161.72      11.134
  CC-2                 100.00    857.88  17045.67      11.579
  JK-1                 100.00    145.13   8590.66       1.915
  JK-2                 100.00    147.68   8788.77       1.949
  WSC                   99.98     20.98     30.38       0.693
  -----------------------------------------------------------
  System               100.00   1996.32     30.38      27.270
  
  
  ********************
  Link Flow Summary
  ********************
  
  -----------------------------------------------------------------------------
                                 Maximum  Time of Max   Maximum    Max/    Max/
                                  |Flow|   Occurrence   |Veloc|    Full    Full
  Link                 Type          LPS  days hr:min     m/sec    Flow   Depth
  -----------------------------------------------------------------------------
  1                    CONDUIT     30.38     0  07:01      1.19    0.01    0.07
  WS02003060WS02003069 CONDUIT     28.24     0  06:04      0.77    0.01    0.08
  WS02003066WSF200     CONDUIT     11.71     0  05:00      0.93    0.00    0.04
  WS02003067WS02003066 CONDUIT     11.71     0  04:46      0.09    0.00    0.18
  WS02003069WS02003072 CONDUIT     28.56     0  06:57      0.62    0.01    0.10
  WS02003072WS02003073 CONDUIT     28.56     0  06:59      0.50    0.06    0.10
  WS02004401WS02004402 CONDUIT     11.54     0  04:12      0.35    0.01    0.38
  WS02004402WS02004403 CONDUIT     11.64     0  01:16      0.40    0.02    0.42
  WS02004403WS02004404 CONDUIT     11.63     0  04:01      0.36    0.01    0.47
  WS02004404WS02004405 CONDUIT     11.83     0  03:57      0.28    0.12    0.51
  WS02004405WS02004406 CONDUIT     11.75     0  04:09      0.22    0.02    0.52
  WS02004406WS02004407 CONDUIT     11.71     0  04:53      0.06    0.01    0.29
  WS02004407WS02004409 CONDUIT     11.71     0  05:13      0.52    0.00    0.08
  WS02004409WS02004410 CONDUIT     11.71     0  04:42      0.34    0.02    0.14
  WS02004410WS02004411 CONDUIT     11.74     0  04:18      0.33    0.02    0.18
  WS02004411WS02004412 CONDUIT     11.84     0  04:09      0.36    0.02    0.22
  WS02004412WS02004413 CONDUIT     12.01     0  04:06      0.30    0.01    0.33
  WS02004413WS02003067 CONDUIT     11.71     0  04:49      0.08    0.01    0.23
  WS02006109WS02006110 CONDUIT     11.51     0  03:02      0.21    0.02    0.38
  WS02006110WS02006113 CONDUIT     11.51     0  03:42      0.10    0.01    0.28
  WS02006111WS02006112 CONDUIT     11.51     0  04:21      0.66    0.01    0.31
  WS02006112WS02006115 CONDUIT     11.82     0  01:53      0.10    0.01    0.35
  WS02006113WS02006111 CONDUIT     11.51     0  05:32      0.67    0.01    0.07
  WS02006115WS02006116 CONDUIT     12.06     0  01:53      0.45    0.02    0.24
  WS02006116WS02004401 CONDUIT     11.55     0  01:26      0.35    0.02    0.34
  WS02006228WS02006109 CONDUIT     10.28     0  02:21      0.28    0.04    0.40
  WS02006229WS02006228 CONDUIT     10.28     0  01:59      0.40    0.03    0.35
  WS02006230WS02006229 CONDUIT     10.54     0  00:16      0.36    0.23    0.31
  WS02006231WS02006230 CONDUIT      0.00     0  00:00      0.00    0.00    0.00
  WS02006232WS02006231 CONDUIT      0.00     0  00:00      0.00    0.00    0.00
  WS02006234WS02006232 CONDUIT      0.00     0  00:00      0.00    0.00    0.00
  WS02006235WS02006234 CONDUIT      0.00     0  00:00      0.00    0.00    0.00
  WS02006238WS02006235 CONDUIT      0.08     0  08:00      0.03    0.00    0.03
  WS02006239WS02006238 CONDUIT      0.08     0  08:00      0.09    0.00    0.01
  WS02006240WS02006239 CONDUIT      0.08     0  08:00      0.09    0.00    0.01
  WS02006242WS02006240 CONDUIT      0.08     0  08:00      0.02    0.00    0.03
  WS02006243WS02006242 CONDUIT      0.09     0  01:31      0.12    0.00    0.01
  WS02006245WS02006243 CONDUIT      0.08     0  07:59      0.10    0.00    0.01
  WS02006247WS02006245 CONDUIT      0.08     0  07:57      0.07    0.00    0.01
  WS02006248WS02006247 CONDUIT      0.08     0  07:59      0.11    0.00    0.01
  WS02006249WS02006248 CONDUIT      0.08     0  07:54      0.06    0.00    0.02
  WS02006251WS02006249 CONDUIT      0.09     0  00:08      0.10    0.00    0.02
  WS02006252WS02006251 CONDUIT      0.00     0  00:00      0.00    0.00    0.00
  WS02006256WS02006235 CONDUIT      0.08     0  08:00      0.35    0.00    0.01
  WSF200WS02003060     CONDUIT     11.71     0  05:14      0.47    0.00    0.06
  YS02001580YS02001583 CONDUIT     62.54     0  01:29      0.49    0.24    1.00
  YS02001583YS02001586 CONDUIT     96.03     0  01:29      0.41    0.15    1.00
  YS02001586YS02001590 CONDUIT    317.78     0  01:49      1.30    0.56    1.00
  YS02001590YS02001593 CONDUIT    317.75     0  01:49      1.16    1.99    1.00
  YS02001593YS02001596 CONDUIT    317.75     0  01:49      1.85    0.50    1.00
  YS02001596YS02001600 CONDUIT    317.75     0  01:45      1.34    0.62    1.00
  YS02001600YS02001601 CONDUIT    317.72     0  01:49      1.12    0.55    1.00
  YS02001601YS02001602 CONDUIT    511.15     0  03:04      1.81    1.85    1.00
  YS02001602YS02001605 CONDUIT    511.19     0  03:04      1.81   10.82    1.00
  YS02001605YS02001607 CONDUIT    511.24     0  03:04      1.81    2.80    1.00
  YS02001607YS02001610 CONDUIT    511.75     0  03:04      0.65    0.49    1.00
  YS02001610YS02001613 CONDUIT    616.78     0  02:08      0.79    0.71    1.00
  YS02001613YS02001616 CONDUIT    616.77     0  02:08      0.79    0.53    1.00
  YS02001616YS02001619 CONDUIT    616.77     0  02:08      0.79    1.07    1.00
  YS02001619YS02001622 CONDUIT   1053.50     0  02:05      1.37    1.55    1.00
  YS02001622YS02001625 CONDUIT   1053.40     0  02:06      1.34    0.56    1.00
  YS02001625YS02001629 CONDUIT   1021.25     0  02:56      1.30    0.49    1.00
  YS02001629YS02163301 CONDUIT   1138.20     0  02:21      1.45    1.40    1.00
  YS02001633YS02163601 CONDUIT   1336.49     0  01:39      1.70    1.40    1.00
  YS02001641YS02001644 CONDUIT   1335.41     0  01:39      1.70    4.32    1.00
  YS02001644YS02001647 CONDUIT   1701.40     0  01:39      2.18    1.00    1.00
  YS02001647YS02001649 CONDUIT   1716.60     0  01:39      2.28    0.91    1.00
  YS02001649YS02001757 CONDUIT   1976.96     0  01:40      2.52    1.20    1.00
  YS02001652YS02001649 CONDUIT   2428.58     0  02:17      3.09    1.20    1.00
  YS02001655YS02001652 CONDUIT   2428.58     0  02:17      3.09    1.18    1.00
  YS02001658YS02001655 CONDUIT   2731.29     0  02:16      3.48    1.16    1.00
  YS02001661YS02001658 CONDUIT   2783.08     0  02:15      3.54    1.09    1.00
  YS02001664YS02001661 CONDUIT   2783.08     0  02:15      3.54    0.87    1.00
  YS02001745YS02001748 CONDUIT   2174.09     0  02:13      2.77    0.84    1.00
  YS02001748YS02001751 CONDUIT   2173.97     0  02:13      2.77    1.10    1.00
  YS02001751YS02001754 CONDUIT   2174.27     0  02:13      2.77    1.05    1.00
  YS02001754YS02001757 CONDUIT   2175.13     0  02:13      2.77    0.88    1.00
  YS02001757CaochengTiaoxuchi CONDUIT   3490.25     0  02:12      7.03    1.51    0.60
  YS02001759YS02001757 CONDUIT   1670.80     0  02:15      2.13    1.19    1.00
  YS02001762YS02001759 CONDUIT    784.55     0  02:31      1.00    0.90    1.00
  YS02001765YS02001762 CONDUIT    784.48     0  02:31      1.00    0.74    1.00
  YS02001767YS02001765 CONDUIT    784.08     0  02:31      1.00    0.99    1.00
  YS02001770YS02001767 CONDUIT    783.30     0  02:31      1.00    3.10    1.00
  YS02001774YS02001770 CONDUIT    851.49     0  02:08      1.08    0.54    1.00
  YS02001779YS02001774 CONDUIT    851.37     0  02:09      1.08    0.43    1.00
  YS02001783YS02001784 CONDUIT   1157.83     0  01:49      2.30    1.60    1.00
  YS02001784YS02001785 CONDUIT   1158.78     0  01:50      2.31    2.70    1.00
  YS02001786YS02001788 CONDUIT   1162.41     0  01:49      2.48    2.24    0.89
  YS02001788YS02001790 CONDUIT   1166.12     0  01:50      2.70    0.86    0.83
  YS02001790YS02001791 CONDUIT   1277.21     0  01:54      3.41    1.39    0.70
  YS02001791YS02001793 CONDUIT   1238.63     0  01:51      6.74    0.53    0.41
  YS02001793JiankangQianchi CONDUIT   1271.57     0  01:51     10.70    0.10    0.50
  YS02001882YS02001884 CONDUIT     87.20     0  01:47      0.12    0.10    1.00
  YS02001884YS02001887 CONDUIT    142.20     0  01:47      0.18    0.19    1.00
  YS02001887YS02001890 CONDUIT    620.56     0  01:50      0.79    1.06    1.00
  YS02001890YS02001895 CONDUIT    553.02     0  01:48      0.70    0.26    1.00
  YS02001895YS02001898 CONDUIT    551.53     0  01:48      0.70    0.96    1.00
  YS02001898YS02001901 CONDUIT    549.42     0  01:48      0.70    0.35    1.00
  YS02001901YS02001904 CONDUIT    550.05     0  01:48      0.70    0.85    1.00
  YS02001904YS02001907 CONDUIT    550.59     0  01:48      0.70    0.19    1.00
  YS02001907YS02006553 CONDUIT    792.82     0  02:07      0.88    0.93    1.00
  YS02001910YS02001907 CONDUIT   1096.46     0  01:50      1.40    0.62    1.00
  YS02001915YS02001910 CONDUIT   1096.46     0  01:50      1.40    0.54    1.00
  YS02001918YS02001915 CONDUIT    632.03     0  01:48      0.81    0.35    1.00
  YS02001920YS02001918 CONDUIT    636.93     0  01:48      0.81    0.62    1.00
  YS02001923YS02001920 CONDUIT    642.85     0  01:48      0.86    0.29    1.00
  YS02001926YS02001923 CONDUIT    879.24     0  01:48      1.33    1.26    1.00
  YS02001929YS02001926 CONDUIT    612.80     0  01:49      1.21    0.29    1.00
  YS02006553YS02006556 CONDUIT    793.07     0  02:07      1.01    0.68    1.00
  YS02006556YS02006558 CONDUIT    793.48     0  02:07      1.01    0.63    1.00
  YS02006558YS02006561 CONDUIT   1183.05     0  01:48      4.18    2.61    1.00
  YS02006561YS02001783 CONDUIT   1157.82     0  01:50      2.30    0.60    1.00
  YS02163301YS02001633 CONDUIT   1138.20     0  02:21      1.45    1.07    1.00
  YS02163601YS02164001 CONDUIT   1336.61     0  01:39      1.70    1.18    1.00
  YS02164001YS02001641 CONDUIT   1335.81     0  01:39      1.70    1.82    1.00
  2                    CONDUIT  16161.72     0  00:00     26.41    0.88    0.73
  3                    CONDUIT  17045.67     0  00:00     27.65    0.89    0.73
  4                    CONDUIT      0.00     0  00:00      0.00    0.00    0.40
  5                    CONDUIT   8590.66     0  00:00     10.94    1.24    1.00
  6                    CONDUIT   8788.77     0  00:00     11.19    1.25    1.00
  7                    CONDUIT      0.08     0  08:00      0.06    0.00    0.50
  
  
  ***************************
  Flow Classification Summary
  ***************************
  
  -------------------------------------------------------------------------------------
                      Adjusted    ---------- Fraction of Time in Flow Class ---------- 
                       /Actual         Up    Down  Sub   Sup   Up    Down  Norm  Inlet 
  Conduit               Length    Dry  Dry   Dry   Crit  Crit  Crit  Crit  Ltd   Ctrl  
  -------------------------------------------------------------------------------------
  1                       1.00   0.00  0.00  0.00  0.00  1.00  0.00  0.00  0.92  0.00
  WS02003060WS02003069    1.00   0.00  0.00  0.00  0.98  0.02  0.00  0.00  0.99  0.00
  WS02003066WSF200        1.00   0.72  0.00  0.00  0.00  0.28  0.00  0.00  0.51  0.00
  WS02003067WS02003066    1.00   0.68  0.03  0.00  0.29  0.00  0.00  0.00  0.00  0.00
  WS02003069WS02003072    1.00   0.00  0.00  0.00  0.99  0.01  0.00  0.00  0.99  0.00
  WS02003072WS02003073    1.00   0.00  0.00  0.00  0.00  0.00  0.00  1.00  0.00  0.00
  WS02004401WS02004402    1.00   0.09  0.00  0.00  0.91  0.00  0.00  0.00  0.04  0.00
  WS02004402WS02004403    1.00   0.09  0.00  0.00  0.91  0.00  0.00  0.00  0.00  0.00
  WS02004403WS02004404    1.00   0.00  0.09  0.00  0.91  0.00  0.00  0.00  0.04  0.00
  WS02004404WS02004405    1.00   0.00  0.00  0.00  1.00  0.00  0.00  0.00  0.00  0.00
  WS02004405WS02004406    1.00   0.00  0.00  0.00  1.00  0.00  0.00  0.00  0.04  0.00
  WS02004406WS02004407    1.00   0.00  0.48  0.00  0.51  0.00  0.00  0.00  0.00  0.00
  WS02004407WS02004409    1.00   0.49  0.00  0.00  0.49  0.02  0.00  0.00  0.65  0.00
  WS02004409WS02004410    1.00   0.49  0.00  0.00  0.51  0.00  0.00  0.00  0.04  0.00
  WS02004410WS02004411    1.00   0.49  0.00  0.00  0.51  0.00  0.00  0.00  0.04  0.00
  WS02004411WS02004412    1.00   0.50  0.00  0.00  0.50  0.00  0.00  0.00  0.00  0.00
  WS02004412WS02004413    1.00   0.51  0.00  0.00  0.49  0.00  0.00  0.00  0.05  0.00
  WS02004413WS02003067    1.00   0.51  0.17  0.00  0.00  0.00  0.32  0.00  0.00  0.00
  WS02006109WS02006110    1.00   0.00  0.02  0.00  0.96  0.00  0.02  0.00  0.00  0.00
  WS02006110WS02006113    1.00   0.02  0.04  0.00  0.93  0.00  0.00  0.00  0.00  0.00
  WS02006111WS02006112    1.00   0.07  0.00  0.00  0.92  0.00  0.00  0.00  0.92  0.00
  WS02006112WS02006115    1.00   0.07  0.02  0.00  0.91  0.00  0.00  0.00  0.00  0.00
  WS02006113WS02006111    1.00   0.07  0.00  0.00  0.02  0.92  0.00  0.00  0.00  0.00
  WS02006115WS02006116    1.00   0.09  0.00  0.00  0.78  0.00  0.00  0.13  0.01  0.00
  WS02006116WS02004401    1.00   0.09  0.00  0.00  0.91  0.00  0.00  0.00  0.01  0.00
  WS02006228WS02006109    1.00   0.00  0.00  0.00  0.99  0.00  0.00  0.00  0.00  0.00
  WS02006229WS02006228    1.00   0.00  0.00  0.00  0.98  0.00  0.00  0.02  0.00  0.00
  WS02006230WS02006229    1.00   0.00  0.00  0.00  0.95  0.00  0.00  0.05  0.00  0.00
  WS02006231WS02006230    1.00   1.00  0.00  0.00  0.00  0.00  0.00  0.00  0.00  0.00
  WS02006232WS02006231    1.00   1.00  0.00  0.00  0.00  0.00  0.00  0.00  0.00  0.00
  WS02006234WS02006232    1.00   1.00  0.00  0.00  0.00  0.00  0.00  0.00  0.00  0.00
  WS02006235WS02006234    1.00   1.00  0.00  0.00  0.00  0.00  0.00  0.00  0.00  0.00
  WS02006238WS02006235    1.00   0.17  0.09  0.00  0.73  0.00  0.00  0.00  0.00  0.00
  WS02006239WS02006238    1.00   0.16  0.00  0.00  0.73  0.00  0.00  0.11  0.73  0.00
  WS02006240WS02006239    1.00   0.16  0.00  0.00  0.00  0.00  0.00  0.84  0.00  0.00
  WS02006242WS02006240    1.00   0.06  0.10  0.00  0.77  0.00  0.07  0.00  0.00  0.00
  WS02006243WS02006242    1.00   0.05  0.00  0.00  0.86  0.00  0.00  0.08  0.78  0.00
  WS02006245WS02006243    1.00   0.05  0.00  0.00  0.01  0.00  0.00  0.94  0.00  0.00
  WS02006247WS02006245    1.00   0.04  0.00  0.00  0.91  0.00  0.00  0.06  0.00  0.00
  WS02006248WS02006247    1.00   0.04  0.00  0.00  0.93  0.00  0.00  0.04  0.02  0.00
  WS02006249WS02006248    1.00   0.00  0.03  0.00  0.00  0.00  0.97  0.00  0.00  0.00
  WS02006251WS02006249    1.00   0.00  0.00  0.00  1.00  0.00  0.00  0.00  0.98  0.00
  WS02006252WS02006251    1.00   1.00  0.00  0.00  0.00  0.00  0.00  0.00  0.00  0.00
  WS02006256WS02006235    1.00   0.27  0.00  0.00  0.01  0.72  0.00  0.00  0.00  0.00
  WSF200WS02003060        1.00   0.00  0.72  0.00  0.28  0.00  0.00  0.00  0.52  0.00
  YS02001580YS02001583    1.00   0.14  0.27  0.00  0.58  0.00  0.00  0.00  0.60  0.00
  YS02001583YS02001586    1.00   0.20  0.17  0.00  0.63  0.00  0.00  0.00  0.61  0.00
  YS02001586YS02001590    1.00   0.10  0.00  0.00  0.74  0.02  0.00  0.14  0.32  0.00
  YS02001590YS02001593    1.00   0.10  0.00  0.00  0.49  0.00  0.41  0.00  0.00  0.00
  YS02001593YS02001596    1.00   0.10  0.00  0.00  0.50  0.01  0.00  0.39  0.01  0.00
  YS02001596YS02001600    1.00   0.10  0.00  0.00  0.56  0.01  0.00  0.33  0.02  0.00
  YS02001600YS02001601    1.00   0.10  0.00  0.00  0.90  0.00  0.00  0.00  0.54  0.00
  YS02001601YS02001602    1.00   0.10  0.00  0.00  0.90  0.00  0.00  0.00  0.00  0.00
  YS02001602YS02001605    1.00   0.10  0.00  0.00  0.90  0.00  0.00  0.00  0.00  0.00
  YS02001605YS02001607    1.00   0.10  0.00  0.00  0.90  0.00  0.00  0.00  0.00  0.00
  YS02001607YS02001610    1.00   0.10  0.00  0.00  0.90  0.00  0.00  0.00  0.00  0.00
  YS02001610YS02001613    1.00   0.10  0.00  0.00  0.90  0.00  0.00  0.00  0.00  0.00
  YS02001613YS02001616    1.00   0.10  0.00  0.00  0.90  0.00  0.00  0.00  0.00  0.00
  YS02001616YS02001619    1.00   0.10  0.00  0.00  0.90  0.00  0.00  0.00  0.00  0.00
  YS02001619YS02001622    1.00   0.10  0.00  0.00  0.90  0.00  0.00  0.00  0.25  0.00
  YS02001622YS02001625    1.00   0.10  0.00  0.00  0.90  0.00  0.00  0.00  0.01  0.00
  YS02001625YS02001629    1.00   0.10  0.01  0.00  0.52  0.00  0.37  0.00  0.00  0.00
  YS02001629YS02163301    1.00   0.10  0.00  0.00  0.90  0.00  0.00  0.00  0.00  0.00
  YS02001633YS02163601    1.00   0.00  0.02  0.00  0.98  0.00  0.00  0.00  0.13  0.00
  YS02001641YS02001644    1.00   0.00  0.02  0.00  0.98  0.00  0.00  0.00  0.00  0.00
  YS02001644YS02001647    1.00   0.00  0.10  0.00  0.90  0.00  0.00  0.00  0.00  0.00
  YS02001647YS02001649    1.00   0.00  0.10  0.00  0.62  0.28  0.00  0.00  0.52  0.00
  YS02001649YS02001757    1.00   0.00  0.00  0.00  0.77  0.22  0.00  0.00  0.75  0.00
  YS02001652YS02001649    1.00   0.00  0.00  0.00  0.99  0.01  0.00  0.00  0.67  0.00
  YS02001655YS02001652    1.00   0.00  0.00  0.00  0.56  0.01  0.00  0.44  0.07  0.00
  YS02001658YS02001655    1.00   0.00  0.10  0.00  0.69  0.21  0.00  0.00  0.65  0.00
  YS02001661YS02001658    1.00   0.10  0.00  0.00  0.49  0.41  0.00  0.00  0.66  0.00
  YS02001664YS02001661    1.00   0.10  0.00  0.00  0.65  0.25  0.00  0.00  0.79  0.00
  YS02001745YS02001748    1.00   0.00  0.00  0.00  0.30  0.02  0.00  0.68  0.03  0.00
  YS02001748YS02001751    1.00   0.00  0.00  0.00  0.78  0.22  0.00  0.00  0.76  0.00
  YS02001751YS02001754    1.00   0.00  0.00  0.00  0.49  0.01  0.00  0.50  0.05  0.00
  YS02001754YS02001757    1.00   0.00  0.00  0.00  0.97  0.03  0.00  0.00  0.73  0.00
  YS02001757CaochengTiaoxuchi    1.00   0.00  0.00  0.00  0.07  0.93  0.00  0.00  0.10  0.00
  YS02001759YS02001757    1.00   0.00  0.00  0.00  1.00  0.00  0.00  0.00  0.53  0.00
  YS02001762YS02001759    1.00   0.00  0.00  0.00  1.00  0.00  0.00  0.00  0.04  0.00
  YS02001765YS02001762    1.00   0.00  0.00  0.00  1.00  0.00  0.00  0.00  0.66  0.00
  YS02001767YS02001765    1.00   0.00  0.00  0.00  1.00  0.00  0.00  0.00  0.00  0.00
  YS02001770YS02001767    1.00   0.00  0.00  0.00  1.00  0.00  0.00  0.00  0.00  0.00
  YS02001774YS02001770    1.00   0.01  0.09  0.00  0.85  0.00  0.05  0.00  0.01  0.00
  YS02001779YS02001774    1.00   0.00  0.00  0.00  1.00  0.00  0.00  0.00  0.72  0.00
  YS02001783YS02001784    1.00   0.00  0.15  0.00  0.85  0.00  0.00  0.00  0.56  0.00
  YS02001784YS02001785    1.00   0.00  0.00  0.00  1.00  0.00  0.00  0.00  0.17  0.00
  YS02001786YS02001788    1.00   0.00  0.00  0.00  0.59  0.41  0.00  0.00  0.00  0.00
  YS02001788YS02001790    1.00   0.00  0.00  0.00  0.18  0.82  0.00  0.00  0.82  0.00
  YS02001790YS02001791    1.00   0.00  0.00  0.00  0.03  0.97  0.00  0.00  0.16  0.00
  YS02001791YS02001793    1.00   0.00  0.00  0.00  0.00  1.00  0.00  0.00  0.00  0.00
  YS02001793JiankangQianchi    1.00   0.00  0.00  0.00  0.02  0.98  0.00  0.00  0.03  0.00
  YS02001882YS02001884    1.00   0.11  0.01  0.00  0.88  0.00  0.00  0.00  0.00  0.00
  YS02001884YS02001887    1.00   0.07  0.03  0.00  0.91  0.00  0.00  0.00  0.00  0.00
  YS02001887YS02001890    1.00   0.00  0.01  0.00  0.95  0.00  0.04  0.00  0.00  0.00
  YS02001890YS02001895    1.00   0.01  0.12  0.00  0.88  0.00  0.00  0.00  0.00  0.00
  YS02001895YS02001898    1.00   0.12  0.00  0.00  0.84  0.00  0.03  0.00  0.00  0.00
  YS02001898YS02001901    1.00   0.13  0.00  0.00  0.87  0.00  0.00  0.00  0.01  0.00
  YS02001901YS02001904    1.00   0.12  0.00  0.00  0.88  0.00  0.00  0.00  0.00  0.00
  YS02001904YS02001907    1.00   0.01  0.12  0.00  0.88  0.00  0.00  0.00  0.00  0.00
  YS02001907YS02006553    1.00   0.01  0.03  0.00  0.96  0.00  0.00  0.00  0.00  0.00
  YS02001910YS02001907    1.00   0.00  0.00  0.00  0.96  0.00  0.00  0.04  0.12  0.00
  YS02001915YS02001910    1.00   0.00  0.00  0.00  0.98  0.02  0.00  0.00  0.16  0.00
  YS02001918YS02001915    1.00   0.00  0.02  0.00  0.96  0.02  0.00  0.00  0.77  0.00
  YS02001920YS02001918    1.00   0.00  0.02  0.00  0.98  0.00  0.00  0.00  0.00  0.00
  YS02001923YS02001920    1.00   0.00  0.00  0.00  1.00  0.00  0.00  0.00  0.93  0.00
  YS02001926YS02001923    1.00   0.00  0.07  0.00  0.11  0.00  0.81  0.00  0.00  0.00
  YS02001929YS02001926    1.00   0.00  0.10  0.00  0.90  0.00  0.00  0.00  0.83  0.00
  YS02006553YS02006556    1.00   0.03  0.00  0.00  0.97  0.00  0.00  0.00  0.03  0.00
  YS02006556YS02006558    1.00   0.00  0.01  0.00  0.99  0.00  0.00  0.00  0.00  0.00
  YS02006558YS02006561    1.00   0.15  0.00  0.00  0.11  0.75  0.00  0.00  0.18  0.00
  YS02006561YS02001783    1.00   0.15  0.00  0.00  0.17  0.69  0.00  0.00  0.70  0.00
  YS02163301YS02001633    1.00   0.00  0.10  0.00  0.90  0.00  0.00  0.00  0.00  0.00
  YS02163601YS02164001    1.00   0.00  0.08  0.00  0.92  0.00  0.00  0.00  0.00  0.00
  YS02164001YS02001641    1.00   0.02  0.06  0.00  0.92  0.00  0.00  0.00  0.05  0.00
  2                       1.00   0.00  0.00  0.00  0.00  1.00  0.00  0.00  0.05  0.00
  3                       1.00   0.00  0.00  0.00  0.00  1.00  0.00  0.00  0.01  0.00
  4                       1.00   0.00  1.00  0.00  0.00  0.00  0.00  0.00  0.00  0.00
  5                       1.00   0.00  0.00  0.00  0.00  1.00  0.00  0.00  0.42  0.00
  6                       1.00   0.00  0.00  0.00  0.00  1.00  0.00  0.00  0.41  0.00
  7                       1.00   0.00  0.28  0.00  0.72  0.00  0.00  0.00  0.76  0.00
  
  
  *************************
  Conduit Surcharge Summary
  *************************
  
  ----------------------------------------------------------------------------
                                                           Hours        Hours 
                         --------- Hours Full --------   Above Full   Capacity
  Conduit                Both Ends  Upstream  Dnstream   Normal Flow   Limited
  ----------------------------------------------------------------------------
  YS02001580YS02001583        1.54      1.54      1.57      0.01         0.01
  YS02001583YS02001586        1.54      1.54      1.65      0.01         0.01
  YS02001586YS02001590        1.65      1.65      1.72      0.01         0.01
  YS02001590YS02001593        1.71      1.71      1.74      1.76         0.01
  YS02001593YS02001596        1.73      1.73      1.82      0.01         0.01
  YS02001596YS02001600        1.87      1.87      1.93      0.01         0.01
  YS02001600YS02001601        1.97      1.97      2.18      0.01         0.01
  YS02001601YS02001602        2.09      2.09      2.21      1.96         0.01
  YS02001602YS02001605        2.05      2.05      2.09      2.85         0.01
  YS02001605YS02001607        2.02      2.05      2.02      2.14         2.02
  YS02001607YS02001610        1.64      1.64      1.67      0.01         0.01
  YS02001610YS02001613        1.64      1.64      1.67      0.01         0.01
  YS02001613YS02001616        1.60      1.60      1.64      0.01         0.01
  YS02001616YS02001619        1.59      1.59      1.60      0.56         0.56
  YS02001619YS02001622        1.58      1.59      1.58      1.74         1.58
  YS02001622YS02001625        1.58      1.58      1.75      0.01         0.01
  YS02001625YS02001629        1.48      1.48      1.75      0.01         0.01
  YS02001629YS02163301        1.73      1.73      1.73      0.90         0.57
  YS02001633YS02163601        1.75      1.75      1.78      0.76         0.76
  YS02001641YS02001644        1.59      1.65      1.59      2.20         1.59
  YS02001644YS02001647        1.20      1.20      1.59      0.01         0.01
  YS02001647YS02001649        1.20      1.20      1.26      0.01         0.01
  YS02001649YS02001757        1.23      1.26      1.23      0.82         0.55
  YS02001652YS02001649        1.11      1.11      1.26      0.18         0.17
  YS02001655YS02001652        0.94      0.94      1.08      0.17         0.17
  YS02001658YS02001655        0.76      0.76      0.94      0.13         0.13
  YS02001661YS02001658        0.48      0.48      0.76      0.11         0.11
  YS02001664YS02001661        0.28      0.28      0.54      0.01         0.01
  YS02001745YS02001748        0.24      0.24      0.61      0.01         0.01
  YS02001748YS02001751        0.71      0.71      0.81      0.04         0.04
  YS02001751YS02001754        0.81      0.81      0.95      0.03         0.03
  YS02001754YS02001757        0.98      0.98      1.23      0.01         0.01
  YS02001757CaochengTiaoxuchi        0.01      1.23      0.01      1.46         0.01
  YS02001759YS02001757        1.15      1.15      1.23      0.30         0.29
  YS02001762YS02001759        1.13      1.13      1.15      0.01         0.01
  YS02001765YS02001762        1.10      1.10      1.13      0.01         0.01
  YS02001767YS02001765        1.08      1.08      1.10      0.01         0.03
  YS02001770YS02001767        1.08      1.09      1.08      1.47         0.81
  YS02001774YS02001770        1.07      1.07      1.14      0.01         0.01
  YS02001779YS02001774        0.98      0.98      1.14      0.01         0.01
  YS02001783YS02001784        0.44      0.46      0.44      0.58         0.44
  YS02001784YS02001785        0.34      0.44      0.34      0.80         0.34
  YS02001786YS02001788        0.01      0.34      0.01      0.67         0.01
  YS02001790YS02001791        0.01      0.01      0.01      0.43         0.01
  YS02001882YS02001884        0.41      0.41      0.42      0.01         0.01
  YS02001884YS02001887        0.44      0.44      0.45      0.01         0.01
  YS02001887YS02001890        0.46      0.46      0.47      0.05         0.01
  YS02001890YS02001895        0.39      0.39      0.49      0.01         0.01
  YS02001895YS02001898        0.39      0.39      0.39      0.01         0.01
  YS02001898YS02001901        0.40      0.40      0.43      0.01         0.01
  YS02001901YS02001904        0.42      0.42      0.43      0.01         0.01
  YS02001904YS02001907        0.42      0.42      0.65      0.01         0.01
  YS02001907YS02006553        0.79      0.79      0.86      0.01         0.01
  YS02001910YS02001907        0.48      0.48      0.63      0.01         0.01
  YS02001915YS02001910        0.40      0.40      0.48      0.01         0.01
  YS02001918YS02001915        0.33      0.33      0.40      0.01         0.01
  YS02001920YS02001918        0.33      0.33      0.34      0.01         0.01
  YS02001923YS02001920        0.28      0.28      0.34      0.01         0.01
  YS02001926YS02001923        0.01      0.01      0.02      0.01         0.01
  YS02001929YS02001926        0.01      0.01      0.02      0.01         0.01
  YS02006553YS02006556        0.56      0.56      0.65      0.01         0.01
  YS02006556YS02006558        0.61      0.61      0.67      0.01         0.01
  YS02006558YS02006561        0.36      0.55      0.36      0.76         0.36
  YS02006561YS02001783        0.29      0.29      0.46      0.01         0.01
  YS02163301YS02001633        1.73      1.73      1.77      0.26         0.01
  YS02163601YS02164001        1.66      1.66      1.78      0.54         0.01
  YS02164001YS02001641        1.65      1.66      1.65      1.37         1.18
  5                           0.01      0.01      0.01      0.01         0.01
  6                           0.01      0.01      0.01      0.01         0.01
  

  Analysis begun on:  Wed Aug  9 16:17:00 2023
  Analysis ended on:  Wed Aug  9 16:17:14 2023
  Total elapsed time: 00:00:14