
  OWA STORM WATER MANAGEMENT MODEL - VERSION v5.1.14 (OWA 2022-07-31)
  --------------------------------------------------------------

  WARNING 04: minimum elevation drop used for Conduit WS02004404WS02004405
  WARNING 03: negative offset ignored for Link YS02001904YS02001907
  
  *********************************************************
  NOTE: The summary statistics displayed in this report are
  based on results found at every computational time step,  
  not just on results from each reporting time step.
  *********************************************************
  
  ****************
  Analysis Options
  ****************
  Flow Units ............... LPS
  Process Models:
    Rainfall/Runoff ........ YES
    RDII ................... NO
    Snowmelt ............... NO
    Groundwater ............ NO
    Flow Routing ........... YES
    Ponding Allowed ........ NO
    Water Quality .......... NO
  Infiltration Method ...... HORTON
  Flow Routing Method ...... DYNWAVE
  Surcharge Method ......... EXTRAN
  Starting Date ............ 08/28/2015 08:00:00
  Ending Date .............. 08/28/2015 16:00:00
  Antecedent Dry Days ...... 8.0
  Report Time Step ......... 00:01:00
  Wet Time Step ............ 00:01:00
  Dry Time Step ............ 00:01:00
  Routing Time Step ........ 30.00 sec
  Variable Time Step ....... YES
  Maximum Trials ........... 8
  Number of Threads ........ 4
  Head Tolerance ........... 0.001500 m
  
  
  **************************        Volume         Depth
  Runoff Quantity Continuity     hectare-m            mm
  **************************     ---------       -------
  Total Precipitation ......         6.314       190.353
  Evaporation Loss .........         0.000         0.000
  Infiltration Loss ........         0.110         3.311
  Surface Runoff ...........         6.172       186.086
  Final Storage ............         0.033         0.998
  Continuity Error (%) .....        -0.022
  
  
  **************************        Volume        Volume
  Flow Routing Continuity        hectare-m      10^6 ltr
  **************************     ---------     ---------
  Dry Weather Inflow .......         0.025         0.251
  Wet Weather Inflow .......         6.173        61.734
  Groundwater Inflow .......         0.000         0.000
  RDII Inflow ..............         0.000         0.000
  External Inflow ..........         0.083         0.834
  External Outflow .........         2.231        22.312
  Flooding Loss ............         4.148        41.483
  Evaporation Loss .........         0.000         0.000
  Exfiltration Loss ........         0.000         0.000
  Initial Stored Volume ....         0.243         2.431
  Final Stored Volume ......         0.182         1.820
  Continuity Error (%) .....        -0.562
  
  
  *************************
  Highest Continuity Errors
  *************************
  Node YS02001884 (5.13%)
  Node YS02001583 (-3.05%)
  Node WS02006256 (-2.93%)
  
  
  ***************************
  Time-Step Critical Elements
  ***************************
  Link WS02006252WS02006251 (28.07%)
  Link WS02006238WS02006235 (19.58%)
  Link WS02004404WS02004405 (14.80%)
  Link WS02006235WS02006234 (9.88%)
  Link YS02001791YS02001793 (7.23%)
  
  
  ********************************
  Highest Flow Instability Indexes
  ********************************
  Link WS02006113WS02006111 (44)
  Link WS02006252WS02006251 (30)
  Link WS02006238WS02006235 (27)
  Link WS02006256WS02006235 (26)
  Link YS02001602YS02001605 (23)
  
  
  *************************
  Routing Time Step Summary
  *************************
  Minimum Time Step           :     0.01 sec
  Average Time Step           :     2.36 sec
  Maximum Time Step           :    30.00 sec
  Percent in Steady State     :    -0.00
  Average Iterations per Step :     4.10
  Percent Not Converging      :    25.38
  
  
  ***************************
  Subcatchment Runoff Summary
  ***************************
  
  ------------------------------------------------------------------------------------------------------------------------------
                            Total      Total      Total      Total     Imperv       Perv      Total       Total     Peak  Runoff
                           Precip      Runon       Evap      Infil     Runoff     Runoff     Runoff      Runoff   Runoff   Coeff
  Subcatchment                 mm         mm         mm         mm         mm         mm         mm    10^6 ltr      LPS
  ------------------------------------------------------------------------------------------------------------------------------
  sub60                    238.15       0.00       0.00       1.95     208.41      26.63     235.04        3.09  2055.78   0.987
  sub61                    238.15       0.00       0.00       2.84     196.57      37.65     234.23        4.30  2864.71   0.984
  sub62                    238.15       0.00       0.00       1.30     217.85      17.76     235.61        6.46  4166.93   0.989
  sub63                    238.15       0.00       0.00       5.31     168.15      63.77     231.92        5.26  3408.42   0.974
  sub64                    238.15       0.00       0.00       2.68     201.25      33.05     234.31        5.63  3539.74   0.984
  sub65                    238.15       0.00       0.00       2.32     205.97      28.65     234.62        6.46  4003.07   0.985
  sub66                    238.15       0.00       0.00       6.71     168.03      62.36     230.39       10.74  5928.09   0.967
  sub67                     53.84       0.00       0.00       1.15      48.29       3.16      51.45        0.96   619.24   0.956
  sub68                     53.84       0.00       0.00       2.13      45.12       5.41      50.52        1.39   793.93   0.938
  sub69                    238.15       0.00       0.00       2.18     202.35      33.55     235.90        8.73  5343.66   0.991
  sub70                    238.15       0.00       0.00       7.47     157.03      73.51     230.54        6.66  3410.01   0.968
  sub71                     53.84       0.00       0.00       1.21      48.21       3.09      51.30        1.34   671.15   0.953
  sub72                     53.84       0.00       0.00       1.08      48.67       2.69      51.36        0.71   318.46   0.954
  
  
  ******************
  Node Depth Summary
  ******************
  
  ---------------------------------------------------------------------------------
                                 Average  Maximum  Maximum  Time of Max    Reported
                                   Depth    Depth      HGL   Occurrence   Max Depth
  Node                 Type       Meters   Meters   Meters  days hr:min      Meters
  ---------------------------------------------------------------------------------
  WS02003060           JUNCTION     0.23     0.38     5.32     0  02:17        0.38
  WS02003066           JUNCTION     0.19     0.30     5.85     0  02:16        0.30
  WS02003067           JUNCTION     0.48     0.70     6.02     0  02:16        0.70
  WS02003069           JUNCTION     0.25     0.43     5.01     0  02:17        0.43
  WS02003072           JUNCTION     0.31     0.50     4.87     0  02:18        0.50
  WS02003073           JUNCTION     0.17     0.30     4.36     0  02:19        0.30
  WS02004401           JUNCTION     0.59     0.85     6.85     0  02:14        0.85
  WS02004402           JUNCTION     0.62     0.88     6.84     0  02:14        0.88
  WS02004403           JUNCTION     0.65     0.89     6.82     0  02:14        0.89
  WS02004404           JUNCTION     0.72     0.96     6.81     0  02:14        0.96
  WS02004405           JUNCTION     0.72     0.96     6.81     0  02:14        0.96
  WS02004406           JUNCTION     0.73     0.96     6.79     0  02:18        0.96
  WS02004407           JUNCTION     0.17     0.30     6.61     0  02:14        0.30
  WS02004409           JUNCTION     0.38     0.67     6.44     0  02:15        0.67
  WS02004410           JUNCTION     0.40     0.68     6.40     0  02:15        0.68
  WS02004411           JUNCTION     0.42     0.69     6.37     0  02:15        0.69
  WS02004412           JUNCTION     0.44     0.70     6.34     0  02:15        0.70
  WS02004413           JUNCTION     0.60     0.86     6.33     0  02:16        0.86
  WS02006109           JUNCTION     0.64     1.13     7.75     0  01:56        0.99
  WS02006110           JUNCTION     0.64     1.17     7.75     0  01:56        0.94
  WS02006111           JUNCTION     0.17     0.90     7.60     0  00:00        0.36
  WS02006112           JUNCTION     0.75     2.68     8.56     0  00:00        1.09
  WS02006113           JUNCTION     0.26     1.40     8.29     0  00:00        0.46
  WS02006115           JUNCTION     0.47     1.65     7.79     0  00:00        0.83
  WS02006116           JUNCTION     0.56     1.06     7.10     0  00:00        0.83
  WS02006228           JUNCTION     0.63     1.17     7.82     0  03:00        1.03
  WS02006229           JUNCTION     0.60     1.17     7.86     0  03:00        1.05
  WS02006230           JUNCTION     0.60     1.32     8.06     0  01:56        1.17
  WS02006231           JUNCTION     0.41     1.40     8.52     0  02:59        0.97
  WS02006232           JUNCTION     0.54     1.49     8.53     0  02:59        1.26
  WS02006234           JUNCTION     0.47     1.68     8.84     0  02:59        1.41
  WS02006235           JUNCTION     0.51     1.96     9.12     0  02:59        1.57
  WS02006238           JUNCTION     0.54     2.03     9.17     0  02:59        1.62
  WS02006239           JUNCTION     0.51     1.97     9.18     0  02:59        1.64
  WS02006240           JUNCTION     0.48     1.83     9.12     0  02:59        1.71
  WS02006242           JUNCTION     0.56     1.55     8.82     0  02:14        1.55
  WS02006243           JUNCTION     0.48     1.44     8.86     0  03:00        1.44
  WS02006245           JUNCTION     0.49     1.38     8.87     0  01:38        1.34
  WS02006247           JUNCTION     0.51     1.37     8.87     0  01:38        1.27
  WS02006248           JUNCTION     0.48     1.10     8.69     0  01:48        1.10
  WS02006249           JUNCTION     0.51     1.09     8.69     0  01:38        1.09
  WS02006251           JUNCTION     0.51     1.54     9.21     0  01:39        1.54
  WS02006252           JUNCTION     0.35     1.50     9.74     0  01:35        1.10
  WS02006256           JUNCTION     0.99     2.35     9.28     0  00:00        2.35
  WSF200               JUNCTION     0.16     0.29     5.52     0  02:16        0.29
  YS02001580           JUNCTION     0.21     0.83     9.37     0  01:30        0.78
  YS02001583           JUNCTION     0.24     0.85     9.34     0  01:30        0.82
  YS02001586           JUNCTION     0.37     1.13     9.30     0  01:30        1.13
  YS02001590           JUNCTION     0.49     1.39     9.25     0  02:27        1.39
  YS02001593           JUNCTION     0.42     1.30     9.17     0  01:44        1.30
  YS02001596           JUNCTION     0.57     1.67     9.09     0  01:30        1.66
  YS02001600           JUNCTION     0.67     1.87     9.00     0  01:30        1.86
  YS02001601           JUNCTION     0.85     2.06     8.90     0  01:28        2.06
  YS02001602           JUNCTION     0.74     1.87     8.77     0  01:38        1.87
  YS02001605           JUNCTION     0.69     1.78     8.68     0  01:43        1.78
  YS02001607           JUNCTION     0.65     1.68     8.53     0  02:26        1.68
  YS02001610           JUNCTION     0.69     1.68     8.48     0  01:40        1.68
  YS02001613           JUNCTION     0.65     1.67     8.52     0  02:22        1.67
  YS02001616           JUNCTION     0.59     1.61     8.52     0  02:07        1.61
  YS02001619           JUNCTION     0.57     1.61     8.54     0  02:04        1.61
  YS02001622           JUNCTION     0.56     1.61     8.51     0  02:26        1.61
  YS02001625           JUNCTION     0.79     1.78     8.38     0  01:40        1.78
  YS02001629           JUNCTION     0.71     1.85     8.40     0  01:46        1.85
  YS02001633           JUNCTION     0.79     2.08     8.53     0  02:13        2.08
  YS02001641           JUNCTION     0.76     1.98     8.41     0  02:26        1.98
  YS02001644           JUNCTION     0.75     1.92     8.35     0  01:47        1.92
  YS02001647           JUNCTION     0.56     1.81     8.42     0  02:29        1.81
  YS02001649           JUNCTION     0.64     2.05     8.44     0  02:14        2.05
  YS02001652           JUNCTION     0.52     2.16     8.76     0  02:26        2.16
  YS02001655           JUNCTION     0.43     2.20     9.05     0  02:20        2.20
  YS02001658           JUNCTION     0.35     2.30     9.44     0  02:22        2.30
  YS02001661           JUNCTION     0.33     2.46     9.86     0  02:26        2.46
  YS02001664           JUNCTION     0.17     2.31    10.23     0  02:22        2.31
  YS02001745           JUNCTION     0.21     1.87     9.39     0  02:24        1.87
  YS02001748           JUNCTION     0.33     2.08     9.16     0  02:24        2.08
  YS02001751           JUNCTION     0.38     2.07     8.95     0  02:24        2.06
  YS02001754           JUNCTION     0.48     2.11     8.72     0  02:24        2.11
  YS02001757           JUNCTION     0.67     2.21     8.47     0  02:19        2.21
  YS02001759           JUNCTION     0.61     2.21     8.57     0  02:19        2.21
  YS02001762           JUNCTION     0.60     2.15     8.55     0  02:21        2.15
  YS02001765           JUNCTION     0.57     2.09     8.54     0  02:26        2.09
  YS02001767           JUNCTION     0.56     2.03     8.52     0  02:26        2.03
  YS02001770           JUNCTION     0.57     1.95     8.44     0  02:07        1.95
  YS02001774           JUNCTION     0.63     2.04     8.46     0  02:26        2.04
  YS02001779           JUNCTION     0.45     1.68     8.37     0  01:51        1.68
  YS02001783           JUNCTION     0.22     1.33     7.47     0  01:37        1.23
  YS02001784           JUNCTION     0.23     1.39     7.46     0  01:37        1.12
  YS02001786           JUNCTION     0.20     1.38     7.41     0  01:37        0.88
  YS02001788           JUNCTION     0.14     0.62     6.60     0  01:39        0.62
  YS02001790           JUNCTION     0.17     0.72     6.37     0  01:41        0.72
  YS02001791           JUNCTION     0.11     0.44     5.91     0  01:40        0.43
  YS02001793           JUNCTION     0.05     0.29     5.13     0  01:48        0.28
  YS02001882           JUNCTION     0.28     1.83     8.55     0  01:36        1.83
  YS02001884           JUNCTION     0.36     1.93     8.55     0  01:36        1.93
  YS02001887           JUNCTION     0.44     1.85     8.39     0  01:37        1.83
  YS02001890           JUNCTION     0.46     1.81     8.32     0  01:37        1.81
  YS02001895           JUNCTION     0.25     1.75     8.50     0  01:37        1.56
  YS02001898           JUNCTION     0.26     1.77     8.51     0  01:37        1.56
  YS02001901           JUNCTION     0.36     1.84     8.45     0  01:37        1.67
  YS02001904           JUNCTION     0.34     1.77     8.40     0  01:37        1.64
  YS02001907           JUNCTION     0.64     1.96     8.25     0  01:37        1.96
  YS02001910           JUNCTION     0.45     2.05     8.56     0  01:37        1.85
  YS02001915           JUNCTION     0.28     2.00     8.72     0  01:37        1.71
  YS02001918           JUNCTION     0.15     1.81     8.88     0  01:38        1.42
  YS02001920           JUNCTION     0.23     2.10     9.11     0  01:38        1.50
  YS02001923           JUNCTION     0.11     2.03     9.29     0  01:38        1.27
  YS02001926           JUNCTION     0.15     1.90     9.35     0  01:38        1.12
  YS02001929           JUNCTION     0.08     1.78     9.47     0  01:38        0.94
  YS02006553           JUNCTION     0.64     2.02     8.31     0  01:37        1.97
  YS02006556           JUNCTION     0.61     2.01     8.32     0  01:37        1.94
  YS02006558           JUNCTION     0.66     2.04     8.31     0  01:37        1.97
  YS02006561           JUNCTION     0.14     1.04     7.70     0  01:37        0.91
  YS02163301           JUNCTION     0.74     1.95     8.47     0  02:19        1.95
  YS02163601           JUNCTION     0.82     2.08     8.48     0  02:19        2.08
  YS02164001           JUNCTION     0.75     1.98     8.44     0  02:27        1.98
  CC-1                 OUTFALL      0.00     0.00     0.00     0  00:00        0.00
  CC-2                 OUTFALL      0.00     0.00     0.00     0  00:00        0.00
  JK-1                 OUTFALL      0.00     0.00     0.00     0  00:00        0.00
  JK-2                 OUTFALL      0.00     0.00     0.00     0  00:00        0.00
  WSC                  OUTFALL      0.17     0.30     0.97     0  02:19        0.30
  CC-storage           STORAGE      1.02     2.27     7.77     0  02:54        2.27
  JK-storage           STORAGE      1.31     4.24     5.04     0  01:48        4.22
  
  
  *******************
  Node Inflow Summary
  *******************
  
  -------------------------------------------------------------------------------------------------
                                  Maximum  Maximum                  Lateral       Total        Flow
                                  Lateral    Total  Time of Max      Inflow      Inflow     Balance
                                   Inflow   Inflow   Occurrence      Volume      Volume       Error
  Node                 Type           LPS      LPS  days hr:min    10^6 ltr    10^6 ltr     Percent
  -------------------------------------------------------------------------------------------------
  WS02003060           JUNCTION     16.53   553.42     0  02:17       0.476        6.01       0.042
  WS02003066           JUNCTION      0.00   536.76     0  02:16           0        5.54       0.025
  WS02003067           JUNCTION      0.00   536.72     0  02:16           0        5.54       0.077
  WS02003069           JUNCTION      0.32   553.65     0  02:17     0.00922        6.02       0.068
  WS02003072           JUNCTION      0.00   553.47     0  02:18           0        6.01       0.119
  WS02003073           JUNCTION      1.82   555.18     0  02:18      0.0524        6.06       0.096
  WS02004401           JUNCTION      0.00  1786.15     0  00:00           0        5.65       0.200
  WS02004402           JUNCTION      0.00  1246.65     0  00:01           0        5.64       0.189
  WS02004403           JUNCTION      0.00   964.17     0  00:01           0        5.63       0.185
  WS02004404           JUNCTION      0.16   817.62     0  00:01     0.00467        5.62       0.164
  WS02004405           JUNCTION      0.04   871.93     0  00:01      0.0011        5.61       0.210
  WS02004406           JUNCTION      0.00   679.13     0  00:02           0         5.6       0.385
  WS02004407           JUNCTION      0.00   537.10     0  02:14           0        5.58       0.021
  WS02004409           JUNCTION      0.00   537.04     0  02:14           0        5.57       0.052
  WS02004410           JUNCTION      0.00   536.99     0  02:15           0        5.57       0.084
  WS02004411           JUNCTION      0.00   536.94     0  02:15           0        5.57       0.104
  WS02004412           JUNCTION      0.00   536.86     0  02:15           0        5.56       0.137
  WS02004413           JUNCTION      0.00   536.87     0  02:16           0        5.55       0.247
  WS02006109           JUNCTION      1.23  1308.01     0  00:00      0.0354        5.58       0.178
  WS02006110           JUNCTION      0.00   560.57     0  03:00           0        5.55      -0.644
  WS02006111           JUNCTION      0.00  1176.04     0  00:00           0        5.58      -0.690
  WS02006112           JUNCTION      0.00  2307.30     0  00:00           0        5.62       0.029
  WS02006113           JUNCTION      0.00   575.01     0  03:00           0        5.54      -0.875
  WS02006115           JUNCTION      0.00   896.63     0  00:00           0        5.59      -0.569
  WS02006116           JUNCTION      0.00  1199.08     0  00:01           0        5.62      -0.400
  WS02006228           JUNCTION      0.00   552.16     0  01:56           0        5.53       0.106
  WS02006229           JUNCTION      0.00   556.44     0  03:00           0        5.52       0.154
  WS02006230           JUNCTION     10.28   596.82     0  02:59       0.296         5.5       0.006
  WS02006231           JUNCTION      0.00   584.06     0  01:48           0        5.19      -0.036
  WS02006232           JUNCTION      0.00   582.65     0  01:48           0         5.2       0.151
  WS02006234           JUNCTION      0.00   575.26     0  01:48           0        5.18      -0.272
  WS02006235           JUNCTION      0.00   564.10     0  01:48           0        5.28       0.114
  WS02006238           JUNCTION      0.00   428.83     0  03:23           0         4.3      -0.153
  WS02006239           JUNCTION      0.00   427.00     0  03:14           0        4.23      -0.126
  WS02006240           JUNCTION      0.00   425.47     0  03:14           0         4.2      -0.031
  WS02006242           JUNCTION      0.00   425.11     0  03:14           0        4.19      -0.021
  WS02006243           JUNCTION      0.00   425.88     0  03:22           0        4.18      -0.280
  WS02006245           JUNCTION      0.00   425.33     0  03:22           0        4.19       0.322
  WS02006247           JUNCTION      0.00   425.78     0  03:51           0        4.19       0.014
  WS02006248           JUNCTION      0.00   427.38     0  04:08           0        4.19      -0.067
  WS02006249           JUNCTION      0.00   470.00     0  00:16           0        4.44       0.316
  WS02006251           JUNCTION      0.08   412.43     0  01:39     0.00222        4.44       0.057
  WS02006252           JUNCTION      0.00   400.00     0  00:15           0         4.4      -0.764
  WS02006256           JUNCTION      0.00   365.52     0  01:30           0        1.47      -2.848
  WSF200               JUNCTION      0.00   536.79     0  02:16           0        5.53       0.010
  YS02001580           JUNCTION      0.00    58.38     0  01:29           0     0.00442       2.161
  YS02001583           JUNCTION      0.00    89.40     0  01:29           0      0.0163      -2.964
  YS02001586           JUNCTION   3410.01  3410.04     0  02:25        6.66        6.67       0.010
  YS02001590           JUNCTION      0.00   318.34     0  03:00           0        2.39      -0.024
  YS02001593           JUNCTION      0.00   318.22     0  03:02           0        2.39       0.009
  YS02001596           JUNCTION      0.00   318.16     0  03:04           0        2.39      -0.004
  YS02001600           JUNCTION      0.00   318.20     0  01:44           0        2.39       0.010
  YS02001601           JUNCTION   5343.66  5661.26     0  02:25        8.73        11.1       0.001
  YS02001602           JUNCTION      0.00   501.76     0  01:29           0        3.44       0.015
  YS02001605           JUNCTION      0.00   500.97     0  01:29           0        3.11       0.026
  YS02001607           JUNCTION      0.00   500.78     0  01:28           0        3.11       0.058
  YS02001610           JUNCTION      0.00   955.65     0  02:31           0        4.86       0.047
  YS02001613           JUNCTION      0.00   619.87     0  02:26           0        3.34       0.042
  YS02001616           JUNCTION      0.00   622.89     0  02:26           0        3.34       0.019
  YS02001619           JUNCTION   5928.09  5928.09     0  02:25        10.7        12.3      -0.003
  YS02001622           JUNCTION      0.00  1054.11     0  02:29           0        7.19       0.000
  YS02001625           JUNCTION      0.00  1505.59     0  02:22           0        8.48       0.139
  YS02001629           JUNCTION      0.00  1139.19     0  02:25           0        5.16      -0.007
  YS02001633           JUNCTION   4003.27  4003.27     0  02:25        6.47        9.43       0.042
  YS02001641           JUNCTION      0.00  1284.71     0  01:38           0        6.42       0.052
  YS02001644           JUNCTION   3539.78  5291.02     0  02:25        5.63        13.3       0.020
  YS02001647           JUNCTION      0.00  1614.26     0  01:40           0        7.21       0.005
  YS02001649           JUNCTION      0.00  3232.82     0  02:25           0        11.3       0.002
  YS02001652           JUNCTION      0.00  2429.41     0  02:24           0        5.05      -0.029
  YS02001655           JUNCTION      0.15  2731.44     0  02:27     0.00443        5.16       0.022
  YS02001658           JUNCTION      0.00  2783.96     0  02:25           0        5.17      -0.056
  YS02001661           JUNCTION      0.00  2783.97     0  02:25           0        5.16      -0.067
  YS02001664           JUNCTION   3408.42  3408.42     0  02:25        5.27        5.27       0.007
  YS02001745           JUNCTION   2055.78  2055.78     0  02:25        3.09        3.09       0.044
  YS02001748           JUNCTION      0.04  2056.32     0  02:25      0.0013        3.09      -0.077
  YS02001751           JUNCTION      0.01  2055.69     0  02:25    0.000317        3.09       0.048
  YS02001754           JUNCTION      0.26  2056.42     0  02:25     0.00749         3.1      -0.060
  YS02001757           JUNCTION      0.00  3464.58     0  02:25           0        17.6       0.025
  YS02001759           JUNCTION   2864.75  2864.75     0  02:25         4.3        6.51      -0.005
  YS02001762           JUNCTION      0.00   723.09     0  02:27           0        2.78       0.002
  YS02001765           JUNCTION      0.00   723.07     0  02:26           0        2.78      -0.004
  YS02001767           JUNCTION      0.54   723.72     0  02:26      0.0154        2.78       0.005
  YS02001770           JUNCTION   4167.09  4888.12     0  02:25        6.46        7.07      -0.016
  YS02001774           JUNCTION      0.00   852.32     0  02:34           0           2       0.058
  YS02001779           JUNCTION      0.01   851.95     0  02:29    0.000144        1.95      -0.021
  YS02001783           JUNCTION      0.00  1156.72     0  01:40           0        3.77       0.004
  YS02001784           JUNCTION      1.06  1157.97     0  01:38      0.0305         3.8       0.014
  YS02001786           JUNCTION      0.06  1158.08     0  01:38     0.00162         3.8       0.017
  YS02001788           JUNCTION      0.07  1159.03     0  01:38     0.00204         3.8       0.007
  YS02001790           JUNCTION      0.15  1171.14     0  01:39     0.00446         3.8       0.031
  YS02001791           JUNCTION      0.00  1282.91     0  01:39           0         3.8      -0.033
  YS02001793           JUNCTION      0.00  1233.20     0  01:39           0        3.81       0.006
  YS02001882           JUNCTION      0.00   116.99     0  01:36           0      0.0126       4.322
  YS02001884           JUNCTION      0.00   163.25     0  01:36           0      0.0486       5.410
  YS02001887           JUNCTION    619.69   621.75     0  01:38        0.97           1       0.441
  YS02001890           JUNCTION      0.00   623.00     0  01:38           0       0.963       0.514
  YS02001895           JUNCTION      0.00   611.28     0  01:37           0       0.939       0.168
  YS02001898           JUNCTION      0.00   609.18     0  01:37           0       0.937      -0.014
  YS02001901           JUNCTION      0.00   612.02     0  01:37           0        0.94       0.357
  YS02001904           JUNCTION      0.00   613.64     0  01:37           0       0.947       0.290
  YS02001907           JUNCTION      0.00  1628.26     0  01:39           0        3.07       0.575
  YS02001910           JUNCTION      0.00  1096.69     0  01:39           0        2.14       0.334
  YS02001915           JUNCTION    671.17  1096.56     0  01:39        1.34        2.19       0.070
  YS02001918           JUNCTION      0.00   761.33     0  01:37           0       0.882       0.017
  YS02001920           JUNCTION      2.87   703.43     0  01:37      0.0827       0.853       0.113
  YS02001923           JUNCTION      0.04   929.75     0  01:37     0.00109       0.751      -0.137
  YS02001926           JUNCTION      0.05  1199.74     0  01:38      0.0015        0.73      -0.214
  YS02001929           JUNCTION    318.46   973.62     0  01:38       0.706       0.713      -0.070
  YS02006553           JUNCTION      0.00   792.13     0  01:56           0        2.41       0.484
  YS02006556           JUNCTION      0.00   792.23     0  01:56           0        2.42       0.317
  YS02006558           JUNCTION    794.81  1173.67     0  01:37        1.42         3.8       0.087
  YS02006561           JUNCTION      0.00  1179.20     0  01:37           0        3.77       0.002
  YS02163301           JUNCTION      0.00  1139.07     0  02:22           0        5.17       0.034
  YS02163601           JUNCTION      0.11  1284.43     0  01:38     0.00317        6.41       0.085
  YS02164001           JUNCTION      0.00  1284.52     0  01:38           0        6.41       0.041
  CC-1                 OUTFALL       0.00   683.00     0  00:05           0        7.16       0.000
  CC-2                 OUTFALL       0.00   683.00     0  00:10           0        6.64       0.000
  JK-1                 OUTFALL       0.00  1000.00     0  00:00           0        1.19       0.000
  JK-2                 OUTFALL       0.00  1000.00     0  00:00           0        1.28       0.000
  WSC                  OUTFALL       0.00   555.06     0  02:19           0        6.05       0.000
  CC-storage           STORAGE       0.00  2898.35     0  01:53           0        19.6      -0.159
  JK-storage           STORAGE       0.00  1259.13     0  01:51           0        3.96      -0.448
  
  
  **********************
  Node Surcharge Summary
  **********************
  
  Surcharging occurs when water rises above the top of the highest conduit.
  ---------------------------------------------------------------------
                                               Max. Height   Min. Depth
                                   Hours       Above Crown    Below Rim
  Node                 Type      Surcharged         Meters       Meters
  ---------------------------------------------------------------------
  WS02006109           JUNCTION        2.56          0.310        1.510
  WS02006110           JUNCTION        0.74          0.258        1.592
  WS02006111           JUNCTION        0.01          0.087        1.783
  WS02006112           JUNCTION        0.89          1.680        0.000
  WS02006113           JUNCTION        0.01          0.600        1.330
  WS02006115           JUNCTION        0.01          0.642        1.608
  WS02006116           JUNCTION        0.01          0.000        2.290
  WS02006228           JUNCTION        2.55          0.339        1.861
  WS02006229           JUNCTION        2.57          0.369        2.081
  WS02006230           JUNCTION        0.74          0.239        1.331
  WS02006231           JUNCTION        0.97          0.688        0.842
  WS02006232           JUNCTION        2.62          0.794        0.686
  WS02006234           JUNCTION        1.44          0.958        0.282
  WS02006235           JUNCTION        2.48          1.246        0.044
  WS02006238           JUNCTION        2.57          1.308        0.122
  WS02006239           JUNCTION        2.53          1.232        0.058
  WS02006240           JUNCTION        2.55          1.116        0.274
  WS02006242           JUNCTION        2.62          0.820        0.000
  WS02006243           JUNCTION        2.57          0.731        0.039
  WS02006245           JUNCTION        2.56          0.671        0.179
  WS02006247           JUNCTION        2.57          0.664        0.096
  WS02006248           JUNCTION        2.54          0.380        0.000
  WS02006249           JUNCTION        2.56          0.390        0.000
  WS02006251           JUNCTION        1.10          0.513        0.667
  WS02006252           JUNCTION        2.82          1.100        0.000
  WS02006256           JUNCTION        7.31          2.050        0.000
  YS02001580           JUNCTION        1.61          0.231        0.219
  YS02001583           JUNCTION        1.62          0.207        0.293
  YS02001586           JUNCTION        1.74          0.510        0.000
  YS02001590           JUNCTION        1.83          0.739        0.011
  YS02001593           JUNCTION        1.82          0.685        0.155
  YS02001596           JUNCTION        1.94          0.941        0.129
  YS02001600           JUNCTION        2.08          1.190        0.000
  YS02001601           JUNCTION        2.33          1.440        0.000
  YS02001602           JUNCTION        2.26          1.270        0.000
  YS02001605           JUNCTION        2.23          1.180        0.000
  YS02001607           JUNCTION        1.84          0.680        0.000
  YS02001610           JUNCTION        1.87          0.680        0.000
  YS02001613           JUNCTION        1.84          0.675        0.025
  YS02001616           JUNCTION        1.80          0.610        0.000
  YS02001619           JUNCTION        1.78          0.610        0.000
  YS02001622           JUNCTION        1.79          0.610        0.010
  YS02001625           JUNCTION        1.98          0.780        0.000
  YS02001629           JUNCTION        1.70          0.470        0.000
  YS02001633           JUNCTION        2.04          1.060        0.000
  YS02001641           JUNCTION        2.01          0.977        0.123
  YS02001644           JUNCTION        1.98          0.920        0.000
  YS02001647           JUNCTION        1.69          0.813        0.087
  YS02001649           JUNCTION        1.83          1.050        0.000
  YS02001652           JUNCTION        1.65          1.130        0.000
  YS02001655           JUNCTION        1.46          1.200        0.000
  YS02001658           JUNCTION        1.18          1.300        0.000
  YS02001661           JUNCTION        0.57          1.390        0.000
  YS02001664           JUNCTION        0.30          1.310        0.000
  YS02001745           JUNCTION        0.33          0.873        0.477
  YS02001748           JUNCTION        1.08          1.003        0.187
  YS02001751           JUNCTION        1.35          1.067        0.133
  YS02001754           JUNCTION        1.59          1.059        0.091
  YS02001757           JUNCTION        1.91          1.210        0.000
  YS02001759           JUNCTION        1.82          1.210        0.000
  YS02001762           JUNCTION        1.79          1.150        0.000
  YS02001765           JUNCTION        1.75          1.090        0.010
  YS02001767           JUNCTION        1.72          1.030        0.000
  YS02001770           JUNCTION        1.69          0.920        0.000
  YS02001774           JUNCTION        1.77          1.038        0.012
  YS02001779           JUNCTION        1.56          0.680        0.000
  YS02001783           JUNCTION        0.49          0.534        1.066
  YS02001784           JUNCTION        0.47          0.594        0.896
  YS02001786           JUNCTION        0.37          0.580        0.850
  YS02001882           JUNCTION        0.44          0.830        0.000
  YS02001884           JUNCTION        0.44          0.870        0.000
  YS02001887           JUNCTION        0.48          0.801        0.149
  YS02001890           JUNCTION        0.49          0.760        0.000
  YS02001895           JUNCTION        0.43          0.750        0.000
  YS02001898           JUNCTION        0.42          0.740        0.000
  YS02001901           JUNCTION        0.47          0.838        0.032
  YS02001904           JUNCTION        0.46          0.774        0.076
  YS02001907           JUNCTION        0.67          0.950        0.000
  YS02001910           JUNCTION        0.52          1.049        0.051
  YS02001915           JUNCTION        0.44          1.000        0.000
  YS02001918           JUNCTION        0.35          0.810        0.000
  YS02001920           JUNCTION        0.37          1.103        0.037
  YS02001923           JUNCTION        0.01          0.820        0.000
  YS02001926           JUNCTION        0.02          0.900        0.000
  YS02001929           JUNCTION        0.01          0.780        0.000
  YS02006553           JUNCTION        0.68          1.024        0.166
  YS02006556           JUNCTION        0.59          0.967        0.383
  YS02006558           JUNCTION        0.58          0.945        0.455
  YS02006561           JUNCTION        0.32          0.239        0.911
  YS02163301           JUNCTION        2.01          0.955        0.075
  YS02163601           JUNCTION        2.09          1.080        0.000
  YS02164001           JUNCTION        2.00          0.977        0.123
  
  
  *********************
  Node Flooding Summary
  *********************
  
  Flooding refers to all water that overflows a node, whether it ponds or not.
  --------------------------------------------------------------------------
                                                             Total   Maximum
                                 Maximum   Time of Max       Flood    Ponded
                        Hours       Rate    Occurrence      Volume     Depth
  Node                 Flooded       LPS   days hr:min    10^6 ltr    Meters
  --------------------------------------------------------------------------
  WS02006112              0.01   1547.89      0  00:00       0.047     0.000
  WS02006242              0.01     36.61      0  02:59       0.000     0.000
  WS02006248              0.05     25.07      0  02:14       0.002     0.000
  WS02006249              1.02    115.91      0  01:39       0.230     0.000
  WS02006252              0.01      0.91      0  04:05       0.000     0.000
  WS02006256              1.36    355.53      0  01:30       0.519     0.000
  YS02001586              1.42   3092.41      0  02:25       4.267     0.000
  YS02001600              0.01      1.04      0  01:30       0.000     0.000
  YS02001601              1.67   5258.95      0  02:25       7.683     0.000
  YS02001602              1.52     62.09      0  02:55       0.329     0.000
  YS02001605              0.01      0.36      0  03:02       0.000     0.000
  YS02001607              0.01      0.76      0  02:26       0.000     0.000
  YS02001610              1.45    955.21      0  02:32       3.262     0.000
  YS02001616              0.12      4.95      0  02:43       0.000     0.000
  YS02001619              0.58   4257.15      0  02:25       3.396     0.000
  YS02001625              1.44   1505.32      0  02:22       5.507     0.000
  YS02001629              0.62    686.93      0  02:21       0.915     0.000
  YS02001633              0.25   1956.64      0  02:25       0.811     0.000
  YS02001644              1.04   5288.12      0  02:25       7.236     0.000
  YS02001649              0.29   2385.54      0  02:25       1.402     0.000
  YS02001652              0.01      0.42      0  02:26       0.000     0.000
  YS02001655              0.12    303.27      0  02:26       0.109     0.000
  YS02001658              0.09     52.31      0  02:25       0.015     0.000
  YS02001661              0.01      0.38      0  02:26       0.000     0.000
  YS02001664              0.08    623.40      0  02:25       0.101     0.000
  YS02001757              0.06    148.86      0  02:25       0.015     0.000
  YS02001759              0.10    735.10      0  02:25       0.140     0.000
  YS02001762              0.04      2.08      0  02:22       0.000     0.000
  YS02001767              0.01      0.55      0  02:26       0.000     0.000
  YS02001770              0.47   4034.41      0  02:25       2.896     0.000
  YS02001779              0.90    851.58      0  02:29       1.931     0.000
  YS02001882              0.01     60.14      0  01:36       0.000     0.000
  YS02001884              0.01     51.86      0  01:36       0.000     0.000
  YS02001890              0.08    187.78      0  01:37       0.018     0.000
  YS02001895              0.01    237.18      0  01:37       0.001     0.000
  YS02001898              0.01     65.83      0  01:37       0.000     0.000
  YS02001907              0.29   1264.95      0  01:39       0.657     0.000
  YS02001915              0.01     15.19      0  01:37       0.000     0.000
  YS02001918              0.01    205.39      0  01:38       0.003     0.000
  YS02001923              0.01    198.67      0  01:38       0.001     0.000
  YS02001926              0.01    589.90      0  01:38       0.005     0.000
  YS02001929              0.01    640.93      0  01:38       0.001     0.000
  YS02163601              0.01      0.72      0  02:27       0.000     0.000
  
  
  **********************
  Storage Volume Summary
  **********************
  
  --------------------------------------------------------------------------------------------------
                         Average     Avg  Evap Exfil       Maximum     Max    Time of Max    Maximum
                          Volume    Pcnt  Pcnt  Pcnt        Volume    Pcnt     Occurrence    Outflow
  Storage Unit           1000 m3    Full  Loss  Loss       1000 m3    Full    days hr:min        LPS
  --------------------------------------------------------------------------------------------------
  CC-storage               2.831      44     0     0         6.332      99       0  02:54    1766.00
  JK-storage               0.066      23     0     0         0.213      73       0  01:48    2300.00
  
  
  ***********************
  Outfall Loading Summary
  ***********************
  
  -----------------------------------------------------------
                         Flow       Avg       Max       Total
                         Freq      Flow      Flow      Volume
  Outfall Node           Pcnt       LPS       LPS    10^6 ltr
  -----------------------------------------------------------
  CC-1                  52.67    683.00    683.00       7.155
  CC-2                  41.38    683.00    683.00       6.640
  JK-1                   5.64   1000.00   1000.00       1.188
  JK-2                   5.95   1000.00   1000.00       1.277
  WSC                   99.99    245.36    555.06       6.052
  -----------------------------------------------------------
  System                41.13   3611.36    555.06      22.312
  
  
  ********************
  Link Flow Summary
  ********************
  
  -----------------------------------------------------------------------------
                                 Maximum  Time of Max   Maximum    Max/    Max/
                                  |Flow|   Occurrence   |Veloc|    Full    Full
  Link                 Type          LPS  days hr:min     m/sec    Flow   Depth
  -----------------------------------------------------------------------------
  1                    CONDUIT    555.06     0  02:19      2.83    0.19    0.30
  WS02003060WS02003069 CONDUIT    553.33     0  02:17      1.64    0.22    0.34
  WS02003066WSF200     CONDUIT    536.79     0  02:16      2.85    0.09    0.22
  WS02003067WS02003066 CONDUIT    536.76     0  02:16      1.21    0.17    0.42
  WS02003069WS02003072 CONDUIT    553.47     0  02:18      1.37    0.27    0.39
  WS02003072WS02003073 CONDUIT    553.36     0  02:18      1.44    1.20    0.37
  WS02004401WS02004402 CONDUIT   1246.65     0  00:01      2.61    1.50    0.86
  WS02004402WS02004403 CONDUIT    964.17     0  00:01      2.34    1.39    0.88
  WS02004403WS02004404 CONDUIT    817.45     0  00:01      2.07    0.59    0.93
  WS02004404WS02004405 CONDUIT    871.89     0  00:01      2.69    8.54    0.96
  WS02004405WS02004406 CONDUIT    679.13     0  00:02      2.33    1.34    0.96
  WS02004406WS02004407 CONDUIT    537.10     0  02:14      1.04    0.24    0.63
  WS02004407WS02004409 CONDUIT    537.04     0  02:14      1.96    0.19    0.48
  WS02004409WS02004410 CONDUIT    536.99     0  02:15      1.29    0.69    0.67
  WS02004410WS02004411 CONDUIT    536.94     0  02:15      1.17    0.73    0.69
  WS02004411WS02004412 CONDUIT    536.86     0  02:15      1.11    0.76    0.69
  WS02004412WS02004413 CONDUIT    536.87     0  02:16      1.10    0.36    0.78
  WS02004413WS02003067 CONDUIT    536.72     0  02:16      1.11    0.23    0.59
  WS02006109WS02006110 CONDUIT   1306.78     0  00:00      3.14    2.51    1.00
  WS02006110WS02006113 CONDUIT    575.01     0  03:00      1.37    0.52    1.00
  WS02006111WS02006112 CONDUIT   2307.30     0  00:00      9.18    1.10    0.91
  WS02006112WS02006115 CONDUIT    896.63     0  00:00      1.16    0.53    1.00
  WS02006113WS02006111 CONDUIT   1176.04     0  00:00      2.48    1.41    1.00
  WS02006115WS02006116 CONDUIT   1199.08     0  00:01      1.84    1.54    1.00
  WS02006116WS02004401 CONDUIT   1786.15     0  00:00      3.17    2.46    0.84
  WS02006228WS02006109 CONDUIT    555.97     0  03:00      1.40    2.43    1.00
  WS02006229WS02006228 CONDUIT    552.16     0  01:56      1.25    1.83    1.00
  WS02006230WS02006229 CONDUIT    556.44     0  03:00      1.45   12.38    1.00
  WS02006231WS02006230 CONDUIT    586.54     0  02:59      1.57    8.90    1.00
  WS02006232WS02006231 CONDUIT    584.06     0  01:48      1.52    1.22    1.00
  WS02006234WS02006232 CONDUIT    582.65     0  01:48      1.51    1.18    1.00
  WS02006235WS02006234 CONDUIT    575.26     0  01:48      1.49    6.07    1.00
  WS02006238WS02006235 CONDUIT    440.77     0  03:24      1.60    0.98    1.00
  WS02006239WS02006238 CONDUIT    428.83     0  03:23      1.11    1.37    1.00
  WS02006240WS02006239 CONDUIT    427.00     0  03:14      1.17    1.34    1.00
  WS02006242WS02006240 CONDUIT    425.47     0  03:14      1.11    1.69    1.00
  WS02006243WS02006242 CONDUIT    425.11     0  03:14      1.27    0.91    1.00
  WS02006245WS02006243 CONDUIT    425.88     0  03:22      1.37    1.26    1.00
  WS02006247WS02006245 CONDUIT    425.33     0  03:22      1.38    3.37    1.00
  WS02006248WS02006247 CONDUIT    425.78     0  03:51      1.44    0.93    1.00
  WS02006249WS02006248 CONDUIT    427.38     0  04:08      1.40    2.34    1.00
  WS02006251WS02006249 CONDUIT    470.00     0  00:16      1.78    1.36    1.00
  WS02006252WS02006251 CONDUIT    412.35     0  01:39     25.71    1.51    1.00
  WS02006256WS02006235 CONDUIT    289.10     0  00:01      4.25    3.06    1.00
  WSF200WS02003060     CONDUIT    536.89     0  02:17      2.06    0.12    0.28
  YS02001580YS02001583 CONDUIT     58.38     0  01:29      0.46    0.23    1.00
  YS02001583YS02001586 CONDUIT     88.59     0  01:28      0.38    0.13    1.00
  YS02001586YS02001590 CONDUIT    318.34     0  03:00      1.23    0.56    1.00
  YS02001590YS02001593 CONDUIT    318.22     0  03:02      1.13    2.00    1.00
  YS02001593YS02001596 CONDUIT    318.16     0  03:04      1.73    0.50    1.00
  YS02001596YS02001600 CONDUIT    318.20     0  01:44      1.29    0.62    1.00
  YS02001600YS02001601 CONDUIT    318.63     0  01:44      1.13    0.55    1.00
  YS02001601YS02001602 CONDUIT    501.76     0  01:29      1.77    1.81    1.00
  YS02001602YS02001605 CONDUIT    500.97     0  01:29      1.77   10.60    1.00
  YS02001605YS02001607 CONDUIT    500.78     0  01:28      1.77    2.75    1.00
  YS02001607YS02001610 CONDUIT    502.94     0  01:29      0.64    0.48    1.00
  YS02001610YS02001613 CONDUIT    619.21     0  02:31      0.79    0.71    1.00
  YS02001613YS02001616 CONDUIT    619.87     0  02:26      0.79    0.53    1.00
  YS02001616YS02001619 CONDUIT    622.89     0  02:26      0.79    1.08    1.00
  YS02001619YS02001622 CONDUIT   1054.11     0  02:29      1.38    1.55    1.00
  YS02001622YS02001625 CONDUIT   1053.81     0  02:22      1.34    0.56    1.00
  YS02001625YS02001629 CONDUIT    914.09     0  01:38      1.16    0.43    1.00
  YS02001629YS02163301 CONDUIT   1139.19     0  02:25      1.45    1.40    1.00
  YS02001633YS02163601 CONDUIT   1284.32     0  01:38      1.64    1.35    1.00
  YS02001641YS02001644 CONDUIT   1284.39     0  01:38      1.64    4.15    1.00
  YS02001644YS02001647 CONDUIT   1614.26     0  01:40      2.11    0.95    1.00
  YS02001647YS02001649 CONDUIT   1615.28     0  01:40      2.28    0.85    1.00
  YS02001649YS02001757 CONDUIT   1834.23     0  01:41      2.46    1.11    1.00
  YS02001652YS02001649 CONDUIT   2429.33     0  02:26      3.09    1.20    1.00
  YS02001655YS02001652 CONDUIT   2429.41     0  02:24      3.09    1.18    1.00
  YS02001658YS02001655 CONDUIT   2731.29     0  02:27      3.48    1.16    1.00
  YS02001661YS02001658 CONDUIT   2783.96     0  02:25      3.54    1.09    1.00
  YS02001664YS02001661 CONDUIT   2783.97     0  02:25      3.54    0.87    1.00
  YS02001745YS02001748 CONDUIT   2056.28     0  02:25      2.62    0.79    1.00
  YS02001748YS02001751 CONDUIT   2055.68     0  02:25      2.62    1.04    1.00
  YS02001751YS02001754 CONDUIT   2056.16     0  02:25      2.62    0.99    1.00
  YS02001754YS02001757 CONDUIT   2057.00     0  02:25      2.62    0.83    1.00
  YS02001757CaochengTiaoxuchi CONDUIT   2898.35     0  01:53      3.69    1.25    1.00
  YS02001759YS02001757 CONDUIT   1516.67     0  02:27      1.93    1.08    1.00
  YS02001762YS02001759 CONDUIT    723.09     0  02:27      0.92    0.83    1.00
  YS02001765YS02001762 CONDUIT    723.07     0  02:26      0.92    0.68    1.00
  YS02001767YS02001765 CONDUIT    723.18     0  02:26      0.92    0.91    1.00
  YS02001770YS02001767 CONDUIT    723.39     0  02:26      0.92    2.87    1.00
  YS02001774YS02001770 CONDUIT    852.32     0  02:34      1.09    0.54    1.00
  YS02001779YS02001774 CONDUIT    851.94     0  02:29      1.08    0.43    1.00
  YS02001783YS02001784 CONDUIT   1156.91     0  01:38      2.30    1.59    1.00
  YS02001784YS02001785 CONDUIT   1158.02     0  01:38      2.30    2.69    1.00
  YS02001786YS02001788 CONDUIT   1158.96     0  01:38      2.48    2.23    0.89
  YS02001788YS02001790 CONDUIT   1170.99     0  01:39      2.71    0.86    0.84
  YS02001790YS02001791 CONDUIT   1282.91     0  01:39      3.42    1.40    0.70
  YS02001791YS02001793 CONDUIT   1233.20     0  01:39      6.76    0.53    0.44
  YS02001793JiankangQianchi CONDUIT   1259.13     0  01:51      2.50    0.10    0.65
  YS02001882YS02001884 CONDUIT    116.99     0  01:36      0.15    0.13    1.00
  YS02001884YS02001887 CONDUIT    163.25     0  01:36      0.21    0.22    1.00
  YS02001887YS02001890 CONDUIT    623.00     0  01:38      0.79    1.07    1.00
  YS02001890YS02001895 CONDUIT    611.28     0  01:37      0.78    0.28    1.00
  YS02001895YS02001898 CONDUIT    609.18     0  01:37      0.78    1.06    1.00
  YS02001898YS02001901 CONDUIT    612.02     0  01:37      0.78    0.39    1.00
  YS02001901YS02001904 CONDUIT    613.64     0  01:37      0.78    0.95    1.00
  YS02001904YS02001907 CONDUIT    616.17     0  01:37      0.78    0.22    1.00
  YS02001907YS02006553 CONDUIT    792.13     0  01:56      0.88    0.93    1.00
  YS02001910YS02001907 CONDUIT   1096.86     0  01:39      1.40    0.62    1.00
  YS02001915YS02001910 CONDUIT   1096.69     0  01:39      1.40    0.54    1.00
  YS02001918YS02001915 CONDUIT    761.33     0  01:37      1.00    0.42    1.00
  YS02001920YS02001918 CONDUIT    700.56     0  01:37      0.89    0.68    1.00
  YS02001923YS02001920 CONDUIT    719.34     0  01:37      0.95    0.32    1.00
  YS02001926YS02001923 CONDUIT    960.37     0  01:38      1.41    1.37    1.00
  YS02001929YS02001926 CONDUIT    701.66     0  01:38      1.23    0.33    1.00
  YS02006553YS02006556 CONDUIT    792.23     0  01:56      1.01    0.68    1.00
  YS02006556YS02006558 CONDUIT    793.70     0  01:56      1.01    0.63    1.00
  YS02006558YS02006561 CONDUIT   1179.20     0  01:37      4.18    2.61    1.00
  YS02006561YS02001783 CONDUIT   1156.72     0  01:40      2.30    0.60    1.00
  YS02163301YS02001633 CONDUIT   1139.07     0  02:22      1.45    1.07    1.00
  YS02163601YS02164001 CONDUIT   1284.52     0  01:38      1.64    1.14    1.00
  YS02164001YS02001641 CONDUIT   1284.71     0  01:38      1.64    1.75    1.00
  CC-R1                PUMP       683.00     0  00:05              1.00
  CC-R2                PUMP       683.00     0  00:10              1.00
  CC-S1                PUMP       200.00     0  00:00              1.00
  CC-S2                PUMP       200.00     0  00:15              1.00
  JK-R1                PUMP      1000.00     0  00:00              1.00
  JK-R2                PUMP      1000.00     0  00:00              1.00
  JK-S                 PUMP       300.00     0  00:00              1.00
  
  
  ***************************
  Flow Classification Summary
  ***************************
  
  -------------------------------------------------------------------------------------
                      Adjusted    ---------- Fraction of Time in Flow Class ---------- 
                       /Actual         Up    Down  Sub   Sup   Up    Down  Norm  Inlet 
  Conduit               Length    Dry  Dry   Dry   Crit  Crit  Crit  Crit  Ltd   Ctrl  
  -------------------------------------------------------------------------------------
  1                       1.00   0.00  0.00  0.00  0.00  1.00  0.00  0.00  0.36  0.00
  WS02003060WS02003069    1.00   0.00  0.00  0.00  0.94  0.06  0.00  0.00  0.61  0.00
  WS02003066WSF200        1.00   0.08  0.00  0.00  0.00  0.92  0.00  0.00  0.86  0.00
  WS02003067WS02003066    1.00   0.06  0.02  0.00  0.92  0.00  0.00  0.00  0.00  0.00
  WS02003069WS02003072    1.00   0.00  0.00  0.00  0.98  0.02  0.00  0.00  0.65  0.00
  WS02003072WS02003073    1.00   0.00  0.00  0.00  0.00  0.00  0.00  1.00  0.00  0.00
  WS02004401WS02004402    1.00   0.00  0.00  0.00  1.00  0.00  0.00  0.00  0.00  0.00
  WS02004402WS02004403    1.00   0.00  0.00  0.00  1.00  0.00  0.00  0.00  0.00  0.00
  WS02004403WS02004404    1.00   0.00  0.00  0.00  1.00  0.00  0.00  0.00  0.00  0.00
  WS02004404WS02004405    1.00   0.00  0.00  0.00  1.00  0.00  0.00  0.00  0.01  0.00
  WS02004405WS02004406    1.00   0.00  0.00  0.00  1.00  0.00  0.00  0.00  0.00  0.00
  WS02004406WS02004407    1.00   0.00  0.01  0.00  0.99  0.00  0.00  0.00  0.00  0.00
  WS02004407WS02004409    1.00   0.01  0.00  0.00  0.97  0.01  0.00  0.00  0.99  0.00
  WS02004409WS02004410    1.00   0.01  0.00  0.00  0.98  0.00  0.00  0.00  0.00  0.00
  WS02004410WS02004411    1.00   0.02  0.00  0.00  0.98  0.00  0.00  0.00  0.00  0.00
  WS02004411WS02004412    1.00   0.02  0.00  0.00  0.98  0.00  0.00  0.00  0.00  0.00
  WS02004412WS02004413    1.00   0.02  0.00  0.00  0.97  0.01  0.00  0.00  0.00  0.00
  WS02004413WS02003067    1.00   0.03  0.03  0.00  0.00  0.00  0.94  0.00  0.00  0.00
  WS02006109WS02006110    1.00   0.00  0.00  0.00  1.00  0.00  0.00  0.00  0.00  0.00
  WS02006110WS02006113    1.00   0.00  0.00  0.00  1.00  0.00  0.00  0.00  0.00  0.00
  WS02006111WS02006112    1.00   0.00  0.00  0.00  1.00  0.00  0.00  0.00  1.00  0.00
  WS02006112WS02006115    1.00   0.00  0.00  0.00  1.00  0.00  0.00  0.00  0.00  0.00
  WS02006113WS02006111    1.00   0.00  0.00  0.00  0.02  0.98  0.00  0.00  0.15  0.00
  WS02006115WS02006116    1.00   0.00  0.00  0.00  1.00  0.00  0.00  0.00  0.00  0.00
  WS02006116WS02004401    1.00   0.00  0.00  0.00  1.00  0.00  0.00  0.00  0.00  0.00
  WS02006228WS02006109    1.00   0.00  0.00  0.00  1.00  0.00  0.00  0.00  0.00  0.00
  WS02006229WS02006228    1.00   0.00  0.00  0.00  1.00  0.00  0.00  0.00  0.00  0.00
  WS02006230WS02006229    1.00   0.00  0.00  0.00  1.00  0.00  0.00  0.00  0.03  0.00
  WS02006231WS02006230    1.00   0.01  0.00  0.00  0.42  0.00  0.58  0.00  0.00  0.00
  WS02006232WS02006231    1.00   0.00  0.01  0.00  0.99  0.00  0.00  0.00  0.00  0.00
  WS02006234WS02006232    1.00   0.00  0.00  0.00  0.99  0.01  0.00  0.00  0.03  0.00
  WS02006235WS02006234    1.00   0.00  0.00  0.00  0.91  0.00  0.09  0.00  0.00  0.00
  WS02006238WS02006235    1.00   0.00  0.00  0.00  1.00  0.00  0.00  0.00  0.00  0.00
  WS02006239WS02006238    1.00   0.00  0.00  0.00  1.00  0.00  0.00  0.00  0.08  0.00
  WS02006240WS02006239    1.00   0.01  0.00  0.00  0.84  0.00  0.00  0.15  0.05  0.00
  WS02006242WS02006240    1.00   0.01  0.00  0.00  0.97  0.00  0.02  0.00  0.00  0.00
  WS02006243WS02006242    1.00   0.01  0.00  0.00  0.98  0.00  0.00  0.01  0.51  0.00
  WS02006245WS02006243    1.00   0.01  0.00  0.00  0.89  0.00  0.00  0.10  0.01  0.00
  WS02006247WS02006245    1.00   0.00  0.00  0.00  0.96  0.00  0.00  0.03  0.00  0.00
  WS02006248WS02006247    1.00   0.00  0.00  0.00  0.98  0.00  0.00  0.02  0.49  0.00
  WS02006249WS02006248    1.00   0.00  0.00  0.00  0.69  0.00  0.31  0.00  0.00  0.00
  WS02006251WS02006249    1.00   0.00  0.00  0.00  0.99  0.01  0.00  0.00  0.47  0.00
  WS02006252WS02006251    1.00   0.00  0.23  0.00  0.17  0.00  0.59  0.00  0.00  0.00
  WS02006256WS02006235    1.00   0.00  0.00  0.00  0.98  0.02  0.00  0.00  0.00  0.00
  WSF200WS02003060        1.00   0.00  0.08  0.00  0.25  0.67  0.00  0.00  0.60  0.00
  YS02001580YS02001583    1.00   0.23  0.37  0.00  0.40  0.00  0.00  0.00  0.59  0.00
  YS02001583YS02001586    1.00   0.26  0.24  0.00  0.50  0.00  0.00  0.00  0.59  0.00
  YS02001586YS02001590    1.00   0.14  0.00  0.00  0.68  0.02  0.00  0.15  0.32  0.00
  YS02001590YS02001593    1.00   0.14  0.00  0.00  0.33  0.00  0.52  0.00  0.00  0.00
  YS02001593YS02001596    1.00   0.15  0.00  0.00  0.37  0.01  0.00  0.47  0.02  0.00
  YS02001596YS02001600    1.00   0.15  0.00  0.00  0.43  0.01  0.00  0.42  0.03  0.00
  YS02001600YS02001601    1.00   0.15  0.00  0.00  0.85  0.00  0.00  0.00  0.53  0.00
  YS02001601YS02001602    1.00   0.14  0.00  0.00  0.85  0.00  0.00  0.00  0.00  0.00
  YS02001602YS02001605    1.00   0.15  0.00  0.00  0.85  0.00  0.00  0.00  0.00  0.00
  YS02001605YS02001607    1.00   0.15  0.00  0.00  0.85  0.00  0.00  0.00  0.00  0.00
  YS02001607YS02001610    1.00   0.15  0.00  0.00  0.85  0.00  0.00  0.00  0.00  0.00
  YS02001610YS02001613    1.00   0.15  0.00  0.00  0.85  0.00  0.00  0.00  0.00  0.00
  YS02001613YS02001616    1.00   0.15  0.00  0.00  0.85  0.00  0.00  0.00  0.00  0.00
  YS02001616YS02001619    1.00   0.14  0.00  0.00  0.86  0.00  0.00  0.00  0.00  0.00
  YS02001619YS02001622    1.00   0.14  0.00  0.00  0.85  0.00  0.00  0.00  0.24  0.00
  YS02001622YS02001625    1.00   0.15  0.00  0.00  0.85  0.00  0.00  0.00  0.01  0.00
  YS02001625YS02001629    1.00   0.15  0.01  0.00  0.41  0.00  0.44  0.00  0.00  0.00
  YS02001629YS02163301    1.00   0.15  0.00  0.00  0.85  0.00  0.00  0.00  0.00  0.00
  YS02001633YS02163601    1.00   0.00  0.02  0.00  0.98  0.00  0.00  0.00  0.13  0.00
  YS02001641YS02001644    1.00   0.00  0.02  0.00  0.98  0.00  0.00  0.00  0.00  0.00
  YS02001644YS02001647    1.00   0.00  0.15  0.00  0.85  0.00  0.00  0.00  0.00  0.00
  YS02001647YS02001649    1.00   0.00  0.15  0.00  0.61  0.24  0.00  0.00  0.53  0.00
  YS02001649YS02001757    1.00   0.00  0.00  0.00  0.80  0.20  0.00  0.00  0.32  0.00
  YS02001652YS02001649    1.00   0.00  0.00  0.00  0.99  0.01  0.00  0.00  0.64  0.00
  YS02001655YS02001652    1.00   0.00  0.00  0.00  0.43  0.01  0.00  0.56  0.04  0.00
  YS02001658YS02001655    1.00   0.00  0.15  0.00  0.72  0.13  0.00  0.00  0.56  0.00
  YS02001661YS02001658    1.00   0.15  0.00  0.00  0.48  0.37  0.00  0.00  0.58  0.00
  YS02001664YS02001661    1.00   0.14  0.00  0.00  0.70  0.15  0.00  0.00  0.74  0.00
  YS02001745YS02001748    1.00   0.00  0.00  0.00  0.28  0.00  0.00  0.71  0.04  0.00
  YS02001748YS02001751    1.00   0.00  0.00  0.00  0.85  0.15  0.00  0.00  0.67  0.00
  YS02001751YS02001754    1.00   0.00  0.00  0.00  0.39  0.02  0.00  0.59  0.04  0.00
  YS02001754YS02001757    1.00   0.00  0.00  0.00  1.00  0.00  0.00  0.00  0.68  0.00
  YS02001757CaochengTiaoxuchi    1.00   0.00  0.00  0.00  0.90  0.10  0.00  0.00  0.63  0.00
  YS02001759YS02001757    1.00   0.00  0.00  0.00  0.99  0.01  0.00  0.00  0.57  0.00
  YS02001762YS02001759    1.00   0.00  0.00  0.00  1.00  0.00  0.00  0.00  0.02  0.00
  YS02001765YS02001762    1.00   0.00  0.00  0.00  1.00  0.00  0.00  0.00  0.62  0.00
  YS02001767YS02001765    1.00   0.00  0.00  0.00  1.00  0.00  0.00  0.00  0.00  0.00
  YS02001770YS02001767    1.00   0.00  0.00  0.00  1.00  0.00  0.00  0.00  0.00  0.00
  YS02001774YS02001770    1.00   0.00  0.14  0.00  0.79  0.00  0.07  0.00  0.01  0.00
  YS02001779YS02001774    1.00   0.00  0.00  0.00  1.00  0.00  0.00  0.00  0.65  0.00
  YS02001783YS02001784    1.00   0.00  0.23  0.00  0.77  0.00  0.00  0.00  0.56  0.00
  YS02001784YS02001785    1.00   0.00  0.00  0.00  1.00  0.00  0.00  0.00  0.16  0.00
  YS02001786YS02001788    1.00   0.00  0.00  0.00  0.73  0.27  0.00  0.00  0.00  0.00
  YS02001788YS02001790    1.00   0.00  0.00  0.00  0.27  0.73  0.00  0.00  0.82  0.00
  YS02001790YS02001791    1.00   0.00  0.00  0.00  0.05  0.95  0.00  0.00  0.17  0.00
  YS02001791YS02001793    1.00   0.00  0.00  0.00  0.00  1.00  0.00  0.00  0.01  0.00
  YS02001793JiankangQianchi    1.00   0.00  0.00  0.00  0.95  0.05  0.00  0.00  0.99  0.00
  YS02001882YS02001884    1.00   0.16  0.01  0.00  0.83  0.00  0.00  0.00  0.00  0.00
  YS02001884YS02001887    1.00   0.11  0.03  0.00  0.86  0.00  0.00  0.00  0.00  0.00
  YS02001887YS02001890    1.00   0.00  0.01  0.00  0.92  0.00  0.08  0.00  0.00  0.00
  YS02001890YS02001895    1.00   0.01  0.18  0.00  0.82  0.00  0.00  0.00  0.00  0.00
  YS02001895YS02001898    1.00   0.18  0.01  0.00  0.77  0.00  0.04  0.00  0.00  0.00
  YS02001898YS02001901    1.00   0.19  0.00  0.00  0.81  0.00  0.00  0.00  0.01  0.00
  YS02001901YS02001904    1.00   0.19  0.00  0.00  0.81  0.00  0.00  0.00  0.00  0.00
  YS02001904YS02001907    1.00   0.00  0.19  0.00  0.81  0.00  0.00  0.00  0.00  0.00
  YS02001907YS02006553    1.00   0.00  0.07  0.00  0.93  0.00  0.00  0.00  0.00  0.00
  YS02001910YS02001907    1.00   0.00  0.00  0.00  0.92  0.00  0.00  0.08  0.12  0.00
  YS02001915YS02001910    1.00   0.00  0.00  0.00  0.95  0.05  0.00  0.00  0.16  0.00
  YS02001918YS02001915    1.00   0.00  0.00  0.00  0.95  0.05  0.00  0.00  0.77  0.00
  YS02001920YS02001918    1.00   0.00  0.00  0.00  1.00  0.00  0.00  0.00  0.01  0.00
  YS02001923YS02001920    1.00   0.00  0.00  0.00  1.00  0.00  0.00  0.00  0.93  0.00
  YS02001926YS02001923    1.00   0.00  0.12  0.00  0.08  0.00  0.81  0.00  0.00  0.00
  YS02001929YS02001926    1.00   0.00  0.14  0.00  0.85  0.00  0.00  0.00  0.83  0.00
  YS02006553YS02006556    1.00   0.04  0.00  0.00  0.96  0.00  0.00  0.00  0.03  0.00
  YS02006556YS02006558    1.00   0.00  0.01  0.00  0.99  0.00  0.00  0.00  0.00  0.00
  YS02006558YS02006561    1.00   0.22  0.00  0.00  0.07  0.71  0.00  0.00  0.20  0.00
  YS02006561YS02001783    1.00   0.22  0.00  0.00  0.11  0.67  0.00  0.00  0.70  0.00
  YS02163301YS02001633    1.00   0.00  0.15  0.00  0.85  0.00  0.00  0.00  0.00  0.00
  YS02163601YS02164001    1.00   0.00  0.12  0.00  0.88  0.00  0.00  0.00  0.00  0.00
  YS02164001YS02001641    1.00   0.02  0.10  0.00  0.88  0.00  0.00  0.00  0.05  0.00
  
  
  *************************
  Conduit Surcharge Summary
  *************************
  
  ----------------------------------------------------------------------------
                                                           Hours        Hours 
                         --------- Hours Full --------   Above Full   Capacity
  Conduit                Both Ends  Upstream  Dnstream   Normal Flow   Limited
  ----------------------------------------------------------------------------
  WS02003072WS02003073        0.01      0.01      0.01      1.50         0.01
  WS02004401WS02004402        0.01      0.01      0.01      0.01         0.01
  WS02004402WS02004403        0.01      0.01      0.01      0.01         0.01
  WS02004404WS02004405        0.01      0.01      0.01      3.70         0.01
  WS02004405WS02004406        0.01      0.01      0.01      0.68         0.01
  WS02006109WS02006110        0.73      0.74      2.63      0.86         0.01
  WS02006110WS02006113        0.01      0.01      2.61      0.01         0.01
  WS02006111WS02006112        0.01      0.01      2.75      0.01         0.01
  WS02006112WS02006115        0.01      0.01      0.88      0.01         0.01
  WS02006113WS02006111        0.01      0.01      0.01      0.01         0.01
  WS02006115WS02006116        0.01      0.01      0.01      0.01         0.01
  WS02006116WS02004401        0.01      0.01      0.01      0.01         0.01
  WS02006228WS02006109        2.56      2.63      2.56      2.85         2.56
  WS02006229WS02006228        2.55      2.57      2.55      2.73         2.52
  WS02006230WS02006229        2.68      2.70      2.68      4.21         2.68
  WS02006231WS02006230        0.74      0.74      1.05      3.69         0.01
  WS02006232WS02006231        0.97      0.97      2.62      1.06         0.01
  WS02006234WS02006232        2.38      2.38      2.62      1.01         1.03
  WS02006235WS02006234        1.40      1.42      2.47      3.53         0.06
  WS02006238WS02006235        2.52      2.52      2.62      0.01         0.02
  WS02006239WS02006238        2.57      2.62      2.57      2.66         2.26
  WS02006240WS02006239        2.52      2.57      2.53      2.64         2.14
  WS02006242WS02006240        2.55      2.55      2.65      2.73         0.01
  WS02006243WS02006242        2.57      2.58      2.62      0.01         0.12
  WS02006245WS02006243        2.57      2.57      2.57      1.87         1.76
  WS02006247WS02006245        2.56      2.58      2.56      3.22         2.51
  WS02006248WS02006247        2.55      2.55      2.57      0.01         0.15
  WS02006249WS02006248        2.54      2.54      2.56      3.17         0.01
  WS02006251WS02006249        2.56      2.56      2.56      2.69         2.36
  WS02006252WS02006251        2.75      2.75      2.82      2.76         0.01
  WS02006256WS02006235        3.47      3.61      7.08      1.36         0.06
  YS02001580YS02001583        1.61      1.61      1.66      0.01         0.01
  YS02001583YS02001586        1.62      1.62      1.74      0.01         0.01
  YS02001586YS02001590        1.75      1.75      1.83      0.01         0.01
  YS02001590YS02001593        1.82      1.82      1.85      1.83         0.01
  YS02001593YS02001596        1.84      1.84      1.94      0.01         0.01
  YS02001596YS02001600        1.99      1.99      2.08      0.01         0.01
  YS02001600YS02001601        2.13      2.13      2.33      0.01         0.01
  YS02001601YS02001602        2.26      2.26      2.35      2.05         0.01
  YS02001602YS02001605        2.23      2.23      2.26      2.91         0.01
  YS02001605YS02001607        2.20      2.23      2.22      2.20         2.12
  YS02001607YS02001610        1.84      1.84      1.87      0.01         0.01
  YS02001610YS02001613        1.84      1.84      1.87      0.01         0.01
  YS02001613YS02001616        1.80      1.80      1.84      0.01         0.01
  YS02001616YS02001619        1.78      1.78      1.80      0.59         0.49
  YS02001619YS02001622        1.78      1.78      1.79      1.75         1.62
  YS02001622YS02001625        1.79      1.79      1.98      0.01         0.01
  YS02001625YS02001629        1.70      1.70      1.98      0.01         0.01
  YS02001629YS02163301        1.99      1.99      2.01      0.54         0.20
  YS02001633YS02163601        2.04      2.04      2.09      0.30         0.32
  YS02001641YS02001644        1.98      2.01      1.98      2.38         1.88
  YS02001644YS02001647        1.69      1.69      1.98      0.01         0.01
  YS02001647YS02001649        1.69      1.69      1.83      0.01         0.01
  YS02001649YS02001757        1.83      1.83      1.91      0.30         0.15
  YS02001652YS02001649        1.66      1.66      1.83      0.18         0.17
  YS02001655YS02001652        1.45      1.45      1.65      0.17         0.17
  YS02001658YS02001655        1.18      1.18      1.46      0.13         0.13
  YS02001661YS02001658        0.56      0.56      1.18      0.10         0.10
  YS02001664YS02001661        0.30      0.30      0.71      0.01         0.01
  YS02001745YS02001748        0.33      0.33      1.08      0.01         0.01
  YS02001748YS02001751        1.15      1.15      1.35      0.03         0.03
  YS02001751YS02001754        1.35      1.35      1.59      0.01         0.01
  YS02001754YS02001757        1.62      1.62      1.91      0.01         0.01
  YS02001757CaochengTiaoxuchi        1.91      1.91      2.43      0.95         0.87
  YS02001759YS02001757        1.82      1.82      1.91      0.11         0.05
  YS02001762YS02001759        1.79      1.79      1.82      0.01         0.02
  YS02001765YS02001762        1.75      1.75      1.79      0.01         0.01
  YS02001767YS02001765        1.72      1.72      1.75      0.01         0.03
  YS02001770YS02001767        1.72      1.72      1.72      1.43         0.92
  YS02001774YS02001770        1.69      1.69      1.77      0.01         0.01
  YS02001779YS02001774        1.56      1.56      1.77      0.01         0.01
  YS02001783YS02001784        0.47      0.49      0.47      0.62         0.47
  YS02001784YS02001785        0.37      0.47      0.37      0.84         0.37
  YS02001786YS02001788        0.01      0.37      0.01      0.70         0.01
  YS02001790YS02001791        0.01      0.01      0.01      0.45         0.01
  YS02001793JiankangQianchi        0.01      0.01      5.17      0.01         0.01
  YS02001882YS02001884        0.44      0.44      0.44      0.01         0.01
  YS02001884YS02001887        0.47      0.47      0.48      0.01         0.01
  YS02001887YS02001890        0.49      0.49      0.50      0.06         0.01
  YS02001890YS02001895        0.43      0.43      0.52      0.01         0.01
  YS02001895YS02001898        0.42      0.42      0.43      0.01         0.01
  YS02001898YS02001901        0.43      0.43      0.47      0.01         0.01
  YS02001901YS02001904        0.46      0.46      0.47      0.01         0.01
  YS02001904YS02001907        0.46      0.46      0.68      0.01         0.01
  YS02001907YS02006553        0.85      0.85      0.92      0.01         0.01
  YS02001910YS02001907        0.52      0.52      0.67      0.01         0.01
  YS02001915YS02001910        0.44      0.44      0.52      0.01         0.01
  YS02001918YS02001915        0.35      0.35      0.44      0.01         0.01
  YS02001920YS02001918        0.35      0.35      0.37      0.01         0.01
  YS02001923YS02001920        0.31      0.31      0.37      0.01         0.01
  YS02001926YS02001923        0.01      0.01      0.02      0.01         0.01
  YS02001929YS02001926        0.01      0.01      0.02      0.01         0.01
  YS02006553YS02006556        0.59      0.59      0.68      0.01         0.01
  YS02006556YS02006558        0.63      0.63      0.70      0.01         0.01
  YS02006558YS02006561        0.39      0.58      0.39      0.79         0.39
  YS02006561YS02001783        0.32      0.32      0.49      0.01         0.01
  YS02163301YS02001633        2.01      2.01      2.06      0.26         0.01
  YS02163601YS02164001        2.00      2.00      2.09      0.20         0.01
  YS02164001YS02001641        2.00      2.00      2.01      0.95         0.88
  
  
  ***************
  Pumping Summary
  ***************
  
  ---------------------------------------------------------------------------------------------------------
                                                  Min       Avg       Max     Total     Power    % Time Off
                        Percent   Number of      Flow      Flow      Flow    Volume     Usage    Pump Curve
  Pump                 Utilized   Start-Ups       LPS       LPS       LPS  10^6 ltr     Kw-hr    Low   High
  ---------------------------------------------------------------------------------------------------------
  CC-R1                   36.66          62      0.00    683.00    683.00     7.211    139.08    0.0   54.7
  CC-R2                   33.97          45      0.00    683.00    683.00     6.681    129.59    0.0   54.6
  CC-S1                   40.84          63      0.00    200.00    200.00     2.352     11.55    0.0   30.3
  CC-S2                   36.00          46      0.00    200.00    200.00     2.073      9.75    0.0   34.4
  JK-R1                    4.12          72      0.00   1000.00   1000.00     1.186     11.94    0.0    0.0
  JK-R2                    4.44          59      0.00   1000.00   1000.00     1.279      8.92    0.0    0.0
  JK-S                    16.97         131      0.00    300.00    300.00     1.466     25.74    0.0    0.0
  

  Analysis begun on:  Wed Aug  9 16:54:55 2023
  Analysis ended on:  Wed Aug  9 16:55:35 2023
  Total elapsed time: 00:00:40