
  OWA STORM WATER MANAGEMENT MODEL - VERSION v5.1.14 (OWA 2022-07-31)
  --------------------------------------------------------------

  WARNING 04: minimum elevation drop used for Conduit WS02004404WS02004405
  WARNING 03: negative offset ignored for Link YS02001904YS02001907
  
  *********************************************************
  NOTE: The summary statistics displayed in this report are
  based on results found at every computational time step,  
  not just on results from each reporting time step.
  *********************************************************
  
  ****************
  Analysis Options
  ****************
  Flow Units ............... LPS
  Process Models:
    Rainfall/Runoff ........ YES
    RDII ................... NO
    Snowmelt ............... NO
    Groundwater ............ NO
    Flow Routing ........... YES
    Ponding Allowed ........ NO
    Water Quality .......... NO
  Infiltration Method ...... HORTON
  Flow Routing Method ...... DYNWAVE
  Surcharge Method ......... EXTRAN
  Starting Date ............ 08/28/2015 08:00:00
  Ending Date .............. 08/28/2015 16:00:00
  Antecedent Dry Days ...... 8.0
  Report Time Step ......... 00:01:00
  Wet Time Step ............ 00:01:00
  Dry Time Step ............ 00:01:00
  Routing Time Step ........ 30.00 sec
  Variable Time Step ....... YES
  Maximum Trials ........... 8
  Number of Threads ........ 4
  Head Tolerance ........... 0.001500 m
  
  
  **************************        Volume         Depth
  Runoff Quantity Continuity     hectare-m            mm
  **************************     ---------       -------
  Total Precipitation ......         3.316        99.971
  Evaporation Loss .........         0.000         0.000
  Infiltration Loss ........         0.101         3.057
  Surface Runoff ...........         3.182        95.944
  Final Storage ............         0.033         0.996
  Continuity Error (%) .....        -0.026
  
  
  **************************        Volume        Volume
  Flow Routing Continuity        hectare-m      10^6 ltr
  **************************     ---------     ---------
  Dry Weather Inflow .......         0.000         0.000
  Wet Weather Inflow .......         3.183        31.833
  Groundwater Inflow .......         0.000         0.000
  RDII Inflow ..............         0.000         0.000
  External Inflow ..........         0.083         0.834
  External Outflow .........         2.040        20.400
  Flooding Loss ............         1.324        13.239
  Evaporation Loss .........         0.000         0.000
  Exfiltration Loss ........         0.000         0.000
  Initial Stored Volume ....         0.243         2.431
  Final Stored Volume ......         0.181         1.807
  Continuity Error (%) .....        -0.993
  
  
  *************************
  Highest Continuity Errors
  *************************
  Node WS02006256 (56.75%)
  Node YS02001583 (-11.42%)
  Node YS02001884 (3.34%)
  
  
  ***************************
  Time-Step Critical Elements
  ***************************
  Link WS02006252WS02006251 (72.57%)
  Link YS02001791YS02001793 (8.09%)
  Link WS02006235WS02006234 (4.99%)
  Link WS02006238WS02006235 (3.82%)
  Link WS02003066WSF200 (3.06%)
  
  
  ********************************
  Highest Flow Instability Indexes
  ********************************
  Link WS02006113WS02006111 (55)
  Link WS02006111WS02006112 (30)
  Link WS02006256WS02006235 (13)
  Link WS02006110WS02006113 (10)
  Link YS02001790YS02001791 (8)
  
  
  *************************
  Routing Time Step Summary
  *************************
  Minimum Time Step           :     0.01 sec
  Average Time Step           :     1.24 sec
  Maximum Time Step           :    30.00 sec
  Percent in Steady State     :    -0.00
  Average Iterations per Step :     2.59
  Percent Not Converging      :     5.90
  
  
  ***************************
  Subcatchment Runoff Summary
  ***************************
  
  ------------------------------------------------------------------------------------------------------------------------------
                            Total      Total      Total      Total     Imperv       Perv      Total       Total     Peak  Runoff
                           Precip      Runon       Evap      Infil     Runoff     Runoff     Runoff      Runoff   Runoff   Coeff
  Subcatchment                 mm         mm         mm         mm         mm         mm         mm    10^6 ltr      LPS
  ------------------------------------------------------------------------------------------------------------------------------
  sub60                     81.29       0.00       0.00       1.84      70.34       7.91      78.26        1.03   669.49   0.963
  sub61                     81.29       0.00       0.00       2.67      66.35      11.16      77.51        1.42   924.88   0.953
  sub62                     81.29       0.00       0.00       1.23      73.51       5.28      78.79        2.16  1299.42   0.969
  sub63                     81.29       0.00       0.00       4.89      56.75      18.69      75.44        1.71  1020.95   0.928
  sub64                     81.29       0.00       0.00       2.48      67.90       9.72      77.62        1.86  1048.70   0.955
  sub65                     81.29       0.00       0.00       2.14      69.48       8.43      77.90        2.14  1169.36   0.958
  sub66                     81.29       0.00       0.00       6.00      56.65      17.58      74.23        3.46  1504.37   0.913
  sub67                    153.32       0.00       0.00       1.23     139.84      11.04     150.88        2.81  1967.34   0.984
  sub68                    153.32       0.00       0.00       2.33     130.69      19.14     149.83        4.12  2758.29   0.977
  sub69                     81.29       0.00       0.00       1.96      68.99      10.23      79.23        2.93  1562.26   0.975
  sub70                     81.29       0.00       0.00       6.47      53.49      21.17      74.66        2.16   846.31   0.918
  sub71                    153.32       0.00       0.00       1.33     139.74      10.94     150.68        3.94  2456.91   0.983
  sub72                    153.32       0.00       0.00       1.18     141.19       9.55     150.74        2.07  1220.99   0.983
  
  
  ******************
  Node Depth Summary
  ******************
  
  ---------------------------------------------------------------------------------
                                 Average  Maximum  Maximum  Time of Max    Reported
                                   Depth    Depth      HGL   Occurrence   Max Depth
  Node                 Type       Meters   Meters   Meters  days hr:min      Meters
  ---------------------------------------------------------------------------------
  WS02003060           JUNCTION     0.23     0.33     5.27     0  03:08        0.33
  WS02003066           JUNCTION     0.20     0.27     5.82     0  03:08        0.27
  WS02003067           JUNCTION     0.51     0.65     5.97     0  03:07        0.65
  WS02003069           JUNCTION     0.26     0.37     4.96     0  03:09        0.37
  WS02003072           JUNCTION     0.32     0.44     4.82     0  03:13        0.44
  WS02003073           JUNCTION     0.18     0.26     4.33     0  03:16        0.26
  WS02004401           JUNCTION     0.59     0.76     6.76     0  00:01        0.76
  WS02004402           JUNCTION     0.62     0.78     6.74     0  03:03        0.78
  WS02004403           JUNCTION     0.65     0.80     6.73     0  02:57        0.80
  WS02004404           JUNCTION     0.72     0.88     6.73     0  02:57        0.88
  WS02004405           JUNCTION     0.72     0.87     6.72     0  03:03        0.87
  WS02004406           JUNCTION     0.74     0.88     6.71     0  02:58        0.88
  WS02004407           JUNCTION     0.18     0.26     6.57     0  02:58        0.26
  WS02004409           JUNCTION     0.39     0.57     6.34     0  03:06        0.57
  WS02004410           JUNCTION     0.42     0.59     6.31     0  03:06        0.59
  WS02004411           JUNCTION     0.44     0.61     6.29     0  03:06        0.61
  WS02004412           JUNCTION     0.46     0.62     6.26     0  03:13        0.62
  WS02004413           JUNCTION     0.63     0.78     6.25     0  03:07        0.78
  WS02006109           JUNCTION     0.64     1.24     7.85     0  00:00        0.83
  WS02006110           JUNCTION     0.65     1.45     8.04     0  00:00        0.82
  WS02006111           JUNCTION     0.18     1.67     8.37     0  00:00        0.56
  WS02006112           JUNCTION     0.74     2.68     8.56     0  00:00        1.29
  WS02006113           JUNCTION     0.27     1.50     8.40     0  00:00        0.39
  WS02006115           JUNCTION     0.47     1.69     7.83     0  00:00        0.86
  WS02006116           JUNCTION     0.55     1.11     7.15     0  00:00        0.77
  WS02006228           JUNCTION     0.62     1.64     8.29     0  00:00        0.84
  WS02006229           JUNCTION     0.59     1.31     8.00     0  00:00        0.82
  WS02006230           JUNCTION     0.57     0.88     7.62     0  00:01        0.86
  WS02006231           JUNCTION     0.39     0.59     7.72     0  03:00        0.59
  WS02006232           JUNCTION     0.53     0.75     7.79     0  02:37        0.75
  WS02006234           JUNCTION     0.43     0.71     7.87     0  02:16        0.71
  WS02006235           JUNCTION     0.47     0.76     7.92     0  02:22        0.76
  WS02006238           JUNCTION     0.50     0.80     7.95     0  02:06        0.80
  WS02006239           JUNCTION     0.47     0.80     8.01     0  01:58        0.80
  WS02006240           JUNCTION     0.44     0.79     8.08     0  01:58        0.79
  WS02006242           JUNCTION     0.52     0.90     8.17     0  02:12        0.90
  WS02006243           JUNCTION     0.42     0.84     8.26     0  02:46        0.83
  WS02006245           JUNCTION     0.43     0.85     8.34     0  02:05        0.85
  WS02006247           JUNCTION     0.46     0.89     8.39     0  02:46        0.89
  WS02006248           JUNCTION     0.41     0.85     8.44     0  02:14        0.85
  WS02006249           JUNCTION     0.45     0.94     8.54     0  01:58        0.94
  WS02006251           JUNCTION     0.45     0.91     8.58     0  01:58        0.91
  WS02006252           JUNCTION     0.37     1.50     9.74     0  01:39        0.63
  WS02006256           JUNCTION     0.69     1.03     7.96     0  02:49        1.03
  WSF200               JUNCTION     0.17     0.25     5.48     0  03:07        0.25
  YS02001580           JUNCTION     0.08     1.05     9.59     0  01:33        1.05
  YS02001583           JUNCTION     0.11     1.14     9.64     0  01:33        0.95
  YS02001586           JUNCTION     0.16     1.13     9.30     0  01:33        1.13
  YS02001590           JUNCTION     0.23     1.40     9.26     0  01:32        1.37
  YS02001593           JUNCTION     0.18     1.37     9.23     0  01:33        1.30
  YS02001596           JUNCTION     0.24     1.72     9.14     0  01:33        1.65
  YS02001600           JUNCTION     0.29     1.87     9.00     0  01:32        1.87
  YS02001601           JUNCTION     0.45     2.06     8.90     0  01:32        2.06
  YS02001602           JUNCTION     0.37     1.87     8.77     0  01:33        1.87
  YS02001605           JUNCTION     0.35     1.78     8.68     0  01:33        1.78
  YS02001607           JUNCTION     0.35     1.68     8.53     0  01:33        1.65
  YS02001610           JUNCTION     0.39     1.68     8.48     0  01:33        1.68
  YS02001613           JUNCTION     0.36     1.67     8.52     0  01:46        1.66
  YS02001616           JUNCTION     0.29     1.61     8.52     0  01:33        1.61
  YS02001619           JUNCTION     0.27     1.61     8.54     0  01:33        1.61
  YS02001622           JUNCTION     0.26     1.62     8.52     0  01:33        1.59
  YS02001625           JUNCTION     0.51     1.78     8.38     0  01:34        1.78
  YS02001629           JUNCTION     0.36     1.85     8.40     0  01:34        1.85
  YS02001633           JUNCTION     0.43     2.08     8.53     0  01:35        2.08
  YS02001641           JUNCTION     0.43     2.00     8.44     0  01:35        1.96
  YS02001644           JUNCTION     0.43     1.92     8.35     0  01:35        1.92
  YS02001647           JUNCTION     0.25     1.84     8.45     0  01:36        1.83
  YS02001649           JUNCTION     0.28     2.05     8.44     0  01:36        2.05
  YS02001652           JUNCTION     0.20     2.16     8.76     0  01:35        2.16
  YS02001655           JUNCTION     0.16     2.20     9.05     0  01:36        2.20
  YS02001658           JUNCTION     0.12     2.30     9.44     0  01:36        1.83
  YS02001661           JUNCTION     0.14     2.46     9.86     0  01:36        1.33
  YS02001664           JUNCTION     0.05     2.31    10.23     0  01:37        0.83
  YS02001745           JUNCTION     0.06     2.35     9.87     0  01:36        0.93
  YS02001748           JUNCTION     0.11     2.27     9.35     0  01:36        1.33
  YS02001751           JUNCTION     0.14     2.20     9.08     0  01:36        1.45
  YS02001754           JUNCTION     0.18     2.20     8.81     0  01:35        1.70
  YS02001757           JUNCTION     0.31     2.21     8.47     0  01:36        2.08
  YS02001759           JUNCTION     0.26     2.21     8.57     0  01:36        2.19
  YS02001762           JUNCTION     0.25     2.15     8.55     0  01:35        2.08
  YS02001765           JUNCTION     0.23     2.10     8.55     0  01:35        2.02
  YS02001767           JUNCTION     0.23     2.03     8.52     0  01:35        1.97
  YS02001770           JUNCTION     0.24     1.95     8.44     0  01:35        1.95
  YS02001774           JUNCTION     0.30     2.01     8.43     0  01:46        2.00
  YS02001779           JUNCTION     0.17     1.68     8.37     0  01:35        1.68
  YS02001783           JUNCTION     0.21     1.38     7.52     0  02:24        1.37
  YS02001784           JUNCTION     0.22     1.26     7.33     0  01:58        1.26
  YS02001786           JUNCTION     0.18     0.94     6.97     0  02:24        0.93
  YS02001788           JUNCTION     0.13     0.65     6.62     0  02:25        0.65
  YS02001790           JUNCTION     0.15     0.74     6.38     0  02:22        0.72
  YS02001791           JUNCTION     0.09     0.45     5.92     0  02:22        0.44
  YS02001793           JUNCTION     0.05     0.22     5.05     0  02:21        0.21
  YS02001882           JUNCTION     0.28     1.82     8.53     0  02:24        1.82
  YS02001884           JUNCTION     0.37     1.92     8.54     0  02:24        1.90
  YS02001887           JUNCTION     0.43     2.00     8.54     0  02:24        2.00
  YS02001890           JUNCTION     0.46     1.81     8.32     0  01:58        1.81
  YS02001895           JUNCTION     0.25     1.63     8.37     0  01:58        1.63
  YS02001898           JUNCTION     0.26     1.63     8.36     0  01:58        1.63
  YS02001901           JUNCTION     0.37     1.69     8.29     0  02:36        1.69
  YS02001904           JUNCTION     0.35     1.68     8.31     0  01:58        1.68
  YS02001907           JUNCTION     0.63     1.96     8.25     0  01:57        1.96
  YS02001910           JUNCTION     0.46     2.02     8.53     0  01:58        2.02
  YS02001915           JUNCTION     0.29     2.00     8.72     0  02:18        2.00
  YS02001918           JUNCTION     0.17     1.81     8.88     0  02:24        1.81
  YS02001920           JUNCTION     0.23     1.97     8.97     0  02:24        1.96
  YS02001923           JUNCTION     0.14     1.80     9.06     0  02:25        1.80
  YS02001926           JUNCTION     0.16     1.71     9.16     0  02:24        1.71
  YS02001929           JUNCTION     0.10     1.59     9.28     0  02:24        1.59
  YS02006553           JUNCTION     0.64     2.07     8.35     0  02:24        2.07
  YS02006556           JUNCTION     0.61     2.20     8.51     0  02:24        2.20
  YS02006558           JUNCTION     0.65     2.34     8.61     0  02:24        2.34
  YS02006561           JUNCTION     0.14     1.09     7.75     0  02:24        1.09
  YS02163301           JUNCTION     0.38     1.95     8.47     0  01:35        1.95
  YS02163601           JUNCTION     0.47     2.08     8.48     0  01:35        2.07
  YS02164001           JUNCTION     0.41     2.03     8.49     0  01:35        1.97
  CC-1                 OUTFALL      0.00     0.00     0.00     0  00:00        0.00
  CC-2                 OUTFALL      0.00     0.00     0.00     0  00:00        0.00
  JK-1                 OUTFALL      0.00     0.00     0.00     0  00:00        0.00
  JK-2                 OUTFALL      0.00     0.00     0.00     0  00:00        0.00
  WSC                  OUTFALL      0.18     0.26     0.93     0  03:17        0.26
  CC-storage           STORAGE      0.83     1.76     7.26     0  02:19        1.76
  JK-storage           STORAGE      1.23     3.00     3.80     0  00:00        2.79
  
  
  *******************
  Node Inflow Summary
  *******************
  
  -------------------------------------------------------------------------------------------------
                                  Maximum  Maximum                  Lateral       Total        Flow
                                  Lateral    Total  Time of Max      Inflow      Inflow     Balance
                                   Inflow   Inflow   Occurrence      Volume      Volume       Error
  Node                 Type           LPS      LPS  days hr:min    10^6 ltr    10^6 ltr     Percent
  -------------------------------------------------------------------------------------------------
  WS02003060           JUNCTION     16.53   427.01     0  03:08       0.476         6.5       0.036
  WS02003066           JUNCTION      0.00   410.43     0  03:07           0        6.03       0.022
  WS02003067           JUNCTION      0.00   410.42     0  03:07           0        6.03       0.068
  WS02003069           JUNCTION      0.32   427.28     0  03:08     0.00922        6.51       0.058
  WS02003072           JUNCTION      0.00   427.22     0  03:09           0        6.51       0.104
  WS02003073           JUNCTION      1.82   429.02     0  03:16      0.0524        6.55       0.084
  WS02004401           JUNCTION      0.00  1786.04     0  00:00           0        6.14       0.177
  WS02004402           JUNCTION      0.00  1248.69     0  00:01           0        6.13       0.178
  WS02004403           JUNCTION      0.00   929.44     0  00:01           0        6.12       0.176
  WS02004404           JUNCTION      0.00   877.02     0  00:01           0        6.11       0.152
  WS02004405           JUNCTION      0.00   827.31     0  00:01           0         6.1       0.199
  WS02004406           JUNCTION      0.00   768.45     0  00:02           0        6.09       0.353
  WS02004407           JUNCTION      0.00   410.63     0  02:58           0        6.07       0.017
  WS02004409           JUNCTION      0.00   410.52     0  02:58           0        6.07       0.043
  WS02004410           JUNCTION      0.00   410.51     0  03:04           0        6.06       0.072
  WS02004411           JUNCTION      0.00   410.48     0  03:06           0        6.06       0.092
  WS02004412           JUNCTION      0.00   410.49     0  03:07           0        6.05       0.120
  WS02004413           JUNCTION      0.00   410.52     0  03:07           0        6.05       0.222
  WS02006109           JUNCTION      0.00  1446.81     0  00:00           0        6.04      -0.063
  WS02006110           JUNCTION      0.00   410.43     0  03:02           0        6.02      -0.904
  WS02006111           JUNCTION      0.00  1180.41     0  00:00           0        6.07      -0.705
  WS02006112           JUNCTION      0.00  2307.30     0  00:00           0        6.11       0.002
  WS02006113           JUNCTION      0.00   517.18     0  00:00           0        6.04      -0.627
  WS02006115           JUNCTION      0.00   953.54     0  00:00           0        6.08      -0.586
  WS02006116           JUNCTION      0.00  1264.47     0  00:00           0        6.12      -0.381
  WS02006228           JUNCTION      0.00   869.18     0  00:00           0        6.03       0.005
  WS02006229           JUNCTION      0.00   470.55     0  00:00           0        6.01      -0.038
  WS02006230           JUNCTION     10.28   706.67     0  00:00       0.296        6.01       0.042
  WS02006231           JUNCTION      0.00   400.16     0  02:50           0         5.7       0.005
  WS02006232           JUNCTION      0.00   400.15     0  02:16           0         5.7       0.081
  WS02006234           JUNCTION      0.00   400.84     0  02:16           0        5.69      -0.033
  WS02006235           JUNCTION      0.00   401.30     0  01:58           0        5.69       0.076
  WS02006238           JUNCTION      0.00   400.84     0  02:15           0        5.68      -0.070
  WS02006239           JUNCTION      0.00   400.58     0  02:24           0        5.68      -0.104
  WS02006240           JUNCTION      0.00   400.71     0  01:58           0        5.68       0.016
  WS02006242           JUNCTION      0.00   400.68     0  02:24           0        5.68       0.056
  WS02006243           JUNCTION      0.00   401.13     0  02:14           0        5.68      -0.024
  WS02006245           JUNCTION      0.00   401.47     0  01:57           0        5.68       0.094
  WS02006247           JUNCTION      0.00   400.60     0  02:06           0        5.69       0.021
  WS02006248           JUNCTION      0.00   401.10     0  01:58           0        5.69       0.004
  WS02006249           JUNCTION      0.00   420.04     0  01:40           0        5.69       0.072
  WS02006251           JUNCTION      0.00   400.86     0  02:08           0        5.69       0.030
  WS02006252           JUNCTION      0.00   400.00     0  01:39           0        5.67      -0.388
  WS02006256           JUNCTION      0.00     9.47     0  00:03           0     0.00138     131.225
  WSF200               JUNCTION      0.00   410.43     0  03:08           0        6.03       0.008
  YS02001580           JUNCTION      0.00   171.34     0  01:33           0     0.00478       1.444
  YS02001583           JUNCTION      0.00   267.02     0  01:33           0      0.0151     -10.248
  YS02001586           JUNCTION    846.31   846.32     0  01:42        2.16        2.17       0.074
  YS02001590           JUNCTION      0.00   319.75     0  01:58           0        1.55      -0.030
  YS02001593           JUNCTION      0.00   318.47     0  01:58           0        1.55      -0.005
  YS02001596           JUNCTION      0.00   318.02     0  02:09           0        1.55      -0.011
  YS02001600           JUNCTION      0.00   317.95     0  02:06           0        1.55       0.006
  YS02001601           JUNCTION   1562.26  1879.76     0  01:40        2.93        4.48       0.002
  YS02001602           JUNCTION      0.00   579.29     0  01:33           0        2.52       0.012
  YS02001605           JUNCTION      0.00   579.28     0  01:33           0        2.36       0.015
  YS02001607           JUNCTION      0.00   579.27     0  01:33           0        2.36       0.075
  YS02001610           JUNCTION      0.00   847.97     0  01:42           0        2.78       0.062
  YS02001613           JUNCTION      0.00   554.27     0  01:33           0        2.14       0.069
  YS02001616           JUNCTION      0.00   559.02     0  01:33           0        2.14       0.015
  YS02001619           JUNCTION   1504.37  1504.37     0  01:42        3.46        5.18      -0.005
  YS02001622           JUNCTION      0.00   998.54     0  01:41           0        4.76      -0.009
  YS02001625           JUNCTION      0.00  1411.48     0  01:43           0        5.06       0.167
  YS02001629           JUNCTION      0.00   956.90     0  01:34           0        3.76       0.003
  YS02001633           JUNCTION   1169.36  1423.07     0  01:34        2.15        5.49       0.056
  YS02001641           JUNCTION      0.00  1422.07     0  01:34           0        5.09       0.051
  YS02001644           JUNCTION   1048.70  1951.82     0  01:35        1.87        6.95       0.036
  YS02001647           JUNCTION      0.00  1952.50     0  01:35           0        6.22      -0.001
  YS02001649           JUNCTION      0.00  2226.82     0  01:35           0        7.94       0.003
  YS02001652           JUNCTION      0.00  1089.02     0  01:37           0        1.72      -0.096
  YS02001655           JUNCTION      0.00  1088.95     0  01:37           0        1.71      -0.167
  YS02001658           JUNCTION      0.00  1088.98     0  01:37           0        1.73      -0.120
  YS02001661           JUNCTION      0.00  1088.06     0  01:37           0        1.73       0.024
  YS02001664           JUNCTION   1020.95  1020.95     0  01:39        1.71        1.71      -0.021
  YS02001745           JUNCTION    669.49   796.98     0  01:36        1.03        1.03       0.219
  YS02001748           JUNCTION      0.00   983.05     0  01:36           0        1.04      -0.403
  YS02001751           JUNCTION      0.00   686.67     0  01:38           0        1.04       0.058
  YS02001754           JUNCTION      0.00   686.43     0  01:38           0        1.05      -0.242
  YS02001757           JUNCTION      0.00  3634.30     0  01:37           0        12.2       0.039
  YS02001759           JUNCTION    924.88  1560.91     0  01:36        1.42         3.2      -0.022
  YS02001762           JUNCTION      0.00   771.48     0  01:36           0        1.78      -0.003
  YS02001765           JUNCTION      0.00   773.30     0  01:36           0        1.77      -0.004
  YS02001767           JUNCTION      0.00   773.90     0  01:36           0        1.77      -0.014
  YS02001770           JUNCTION   1299.42  1299.42     0  01:39        2.16        2.21      -0.029
  YS02001774           JUNCTION      0.00   743.68     0  01:39           0       0.451       0.215
  YS02001779           JUNCTION      0.00   743.94     0  01:39           0       0.403      -0.244
  YS02001783           JUNCTION      0.00  1245.45     0  02:25           0        6.39      -0.003
  YS02001784           JUNCTION      0.00  1245.71     0  02:25           0        6.39      -0.001
  YS02001786           JUNCTION      0.00  1245.76     0  02:25           0        6.39       0.002
  YS02001788           JUNCTION      0.00  1245.81     0  02:25           0        6.39       0.001
  YS02001790           JUNCTION      0.00  1254.03     0  02:25           0        6.39       0.045
  YS02001791           JUNCTION      0.00  1321.32     0  02:22           0        6.39      -0.058
  YS02001793           JUNCTION      0.00  1277.82     0  02:21           0        6.39       0.003
  YS02001882           JUNCTION      0.00    25.87     0  01:37           0      0.0151       1.934
  YS02001884           JUNCTION      0.00    39.94     0  01:22           0      0.0527       3.458
  YS02001887           JUNCTION   1967.34  1967.97     0  02:25        2.81        2.84       0.132
  YS02001890           JUNCTION      0.00  1967.00     0  02:25           0         2.8       0.149
  YS02001895           JUNCTION      0.00   518.79     0  02:19           0        1.95       0.090
  YS02001898           JUNCTION      0.00   518.22     0  02:21           0        1.95      -0.038
  YS02001901           JUNCTION      0.00   518.27     0  02:25           0        1.95       0.121
  YS02001904           JUNCTION      0.00   518.10     0  02:24           0        1.95       0.110
  YS02001907           JUNCTION      0.00  4028.93     0  02:25           0        7.99       0.207
  YS02001910           JUNCTION      0.00  1993.14     0  02:21           0        5.35       0.114
  YS02001915           JUNCTION   2456.91  3662.45     0  02:25        3.94        6.01       0.007
  YS02001918           JUNCTION      0.00  1228.04     0  02:25           0        2.07      -0.013
  YS02001920           JUNCTION      0.00  1226.65     0  02:25           0        2.07       0.015
  YS02001923           JUNCTION      0.00  1223.65     0  02:25           0        2.07      -0.018
  YS02001926           JUNCTION      0.00  1222.01     0  02:25           0        2.07      -0.001
  YS02001929           JUNCTION   1220.99  1220.99     0  02:25        2.07        2.07      -0.003
  YS02006553           JUNCTION      0.00  1516.36     0  02:25           0         3.7       0.296
  YS02006556           JUNCTION      0.00  1513.70     0  02:25           0        3.71       0.191
  YS02006558           JUNCTION   2758.29  2758.29     0  02:25        4.12        7.12       0.039
  YS02006561           JUNCTION      0.00  1245.10     0  02:25           0        6.39      -0.000
  YS02163301           JUNCTION      0.00   874.73     0  01:34           0        3.74       0.033
  YS02163601           JUNCTION      0.00  1422.74     0  01:34           0        5.08       0.093
  YS02164001           JUNCTION      0.00  1422.63     0  01:34           0        5.09       0.036
  CC-1                 OUTFALL       0.00   683.00     0  00:00           0        4.19       0.000
  CC-2                 OUTFALL       0.00   683.00     0  00:00           0        3.16       0.000
  JK-1                 OUTFALL       0.00  1000.00     0  00:00           0        3.31       0.000
  JK-2                 OUTFALL       0.00  1000.00     0  01:21           0         3.2       0.000
  WSC                  OUTFALL       0.00   429.02     0  03:17           0        6.55       0.000
  CC-storage           STORAGE       0.00  3634.15     0  01:37           0        14.4      -0.222
  JK-storage           STORAGE       0.00  1277.46     0  02:21           0        6.54      -0.253
  
  
  **********************
  Node Surcharge Summary
  **********************
  
  Surcharging occurs when water rises above the top of the highest conduit.
  ---------------------------------------------------------------------
                                               Max. Height   Min. Depth
                                   Hours       Above Crown    Below Rim
  Node                 Type      Surcharged         Meters       Meters
  ---------------------------------------------------------------------
  WS02006109           JUNCTION        2.17          0.416        1.404
  WS02006110           JUNCTION        0.01          0.544        1.306
  WS02006111           JUNCTION        0.01          0.856        1.014
  WS02006112           JUNCTION        0.02          1.680        0.000
  WS02006113           JUNCTION        0.01          0.705        1.225
  WS02006115           JUNCTION        0.01          0.682        1.568
  WS02006116           JUNCTION        0.01          0.053        2.237
  WS02006228           JUNCTION        2.15          0.810        1.390
  WS02006229           JUNCTION        2.18          0.510        1.940
  WS02006232           JUNCTION        2.23          0.050        1.430
  WS02006235           JUNCTION        2.17          0.050        1.240
  WS02006238           JUNCTION        2.20          0.082        1.348
  WS02006239           JUNCTION        2.17          0.061        1.229
  WS02006240           JUNCTION        2.18          0.076        1.314
  WS02006242           JUNCTION        2.26          0.172        0.648
  WS02006243           JUNCTION        2.19          0.130        0.640
  WS02006245           JUNCTION        2.20          0.144        0.706
  WS02006247           JUNCTION        2.21          0.179        0.581
  WS02006248           JUNCTION        2.19          0.134        0.246
  WS02006249           JUNCTION        2.21          0.238        0.152
  WS02006252           JUNCTION        2.41          1.100        0.000
  WS02006256           JUNCTION        7.62          0.729        1.321
  YS02001580           JUNCTION        0.80          0.450        0.000
  YS02001583           JUNCTION        0.81          0.500        0.000
  YS02001586           JUNCTION        0.98          0.510        0.000
  YS02001590           JUNCTION        1.06          0.750        0.000
  YS02001593           JUNCTION        1.06          0.750        0.090
  YS02001596           JUNCTION        1.18          0.993        0.077
  YS02001600           JUNCTION        1.34          1.190        0.000
  YS02001601           JUNCTION        1.67          1.440        0.000
  YS02001602           JUNCTION        1.60          1.270        0.000
  YS02001605           JUNCTION        1.56          1.180        0.000
  YS02001607           JUNCTION        1.06          0.680        0.000
  YS02001610           JUNCTION        1.09          0.680        0.000
  YS02001613           JUNCTION        1.05          0.674        0.026
  YS02001616           JUNCTION        1.01          0.610        0.000
  YS02001619           JUNCTION        1.00          0.610        0.000
  YS02001622           JUNCTION        1.00          0.620        0.000
  YS02001625           JUNCTION        1.19          0.780        0.000
  YS02001629           JUNCTION        0.94          0.470        0.000
  YS02001633           JUNCTION        1.23          1.060        0.000
  YS02001641           JUNCTION        1.19          1.004        0.096
  YS02001644           JUNCTION        1.16          0.920        0.000
  YS02001647           JUNCTION        0.95          0.836        0.064
  YS02001649           JUNCTION        1.11          1.050        0.000
  YS02001652           JUNCTION        0.88          1.130        0.000
  YS02001655           JUNCTION        0.62          1.200        0.000
  YS02001658           JUNCTION        0.32          1.300        0.000
  YS02001661           JUNCTION        0.10          1.390        0.000
  YS02001664           JUNCTION        0.01          1.310        0.000
  YS02001745           JUNCTION        0.01          1.350        0.000
  YS02001748           JUNCTION        0.24          1.190        0.000
  YS02001751           JUNCTION        0.45          1.200        0.000
  YS02001754           JUNCTION        0.76          1.150        0.000
  YS02001757           JUNCTION        1.19          1.210        0.000
  YS02001759           JUNCTION        1.09          1.210        0.000
  YS02001762           JUNCTION        1.05          1.150        0.000
  YS02001765           JUNCTION        0.99          1.100        0.000
  YS02001767           JUNCTION        0.95          1.030        0.000
  YS02001770           JUNCTION        0.92          0.920        0.000
  YS02001774           JUNCTION        1.02          1.010        0.040
  YS02001779           JUNCTION        0.73          0.680        0.000
  YS02001783           JUNCTION        1.13          0.579        1.021
  YS02001784           JUNCTION        1.10          0.465        1.025
  YS02001786           JUNCTION        0.93          0.141        1.289
  YS02001882           JUNCTION        1.04          0.818        0.012
  YS02001884           JUNCTION        1.06          0.861        0.009
  YS02001887           JUNCTION        1.12          0.950        0.000
  YS02001890           JUNCTION        1.14          0.760        0.000
  YS02001895           JUNCTION        1.02          0.626        0.124
  YS02001898           JUNCTION        1.01          0.596        0.144
  YS02001901           JUNCTION        1.09          0.686        0.184
  YS02001904           JUNCTION        1.08          0.684        0.166
  YS02001907           JUNCTION        1.49          0.950        0.000
  YS02001910           JUNCTION        1.18          1.024        0.076
  YS02001915           JUNCTION        1.04          1.000        0.000
  YS02001918           JUNCTION        0.90          0.810        0.000
  YS02001920           JUNCTION        0.92          0.967        0.173
  YS02001923           JUNCTION        0.41          0.591        0.229
  YS02001926           JUNCTION        0.45          0.712        0.188
  YS02001929           JUNCTION        0.28          0.586        0.194
  YS02006553           JUNCTION        1.51          1.067        0.123
  YS02006556           JUNCTION        1.33          1.162        0.188
  YS02006558           JUNCTION        1.31          1.239        0.161
  YS02006561           JUNCTION        0.86          0.287        0.863
  YS02163301           JUNCTION        1.21          0.954        0.076
  YS02163601           JUNCTION        1.26          1.080        0.000
  YS02164001           JUNCTION        1.19          1.031        0.069
  
  
  *********************
  Node Flooding Summary
  *********************
  
  Flooding refers to all water that overflows a node, whether it ponds or not.
  --------------------------------------------------------------------------
                                                             Total   Maximum
                                 Maximum   Time of Max       Flood    Ponded
                        Hours       Rate    Occurrence      Volume     Depth
  Node                 Flooded       LPS   days hr:min    10^6 ltr    Meters
  --------------------------------------------------------------------------
  WS02006112              0.01   1405.86      0  00:00       0.047     0.000
  WS02006252              0.01      0.91      0  01:39       0.000     0.000
  YS02001580              0.01    113.10      0  01:33       0.001     0.000
  YS02001583              0.01    235.76      0  01:33       0.000     0.000
  YS02001586              0.65    528.80      0  01:42       0.608     0.000
  YS02001590              0.01    119.32      0  01:32       0.000     0.000
  YS02001600              0.01      4.55      0  01:32       0.000     0.000
  YS02001601              0.89   1481.79      0  01:40       1.958     0.000
  YS02001602              0.80     62.17      0  01:58       0.162     0.000
  YS02001605              0.01      7.77      0  01:33       0.000     0.000
  YS02001607              0.01     71.63      0  01:33       0.000     0.000
  YS02001610              0.71    847.94      0  01:42       1.059     0.000
  YS02001616              0.01    119.57      0  01:33       0.000     0.000
  YS02001619              0.01    229.25      0  01:33       0.001     0.000
  YS02001622              0.01    299.56      0  01:33       0.001     0.000
  YS02001625              0.68   1411.29      0  01:43       1.686     0.000
  YS02001629              0.18    412.25      0  01:38       0.120     0.000
  YS02001633              0.01      3.96      0  01:35       0.000     0.000
  YS02001644              0.27   1279.50      0  01:40       0.719     0.000
  YS02001649              0.01    205.99      0  01:36       0.004     0.000
  YS02001652              0.01    233.63      0  01:35       0.000     0.000
  YS02001655              0.01    509.33      0  01:36       0.001     0.000
  YS02001658              0.01    460.25      0  01:36       0.001     0.000
  YS02001661              0.01    335.29      0  01:36       0.000     0.000
  YS02001664              0.01    207.87      0  01:37       0.000     0.000
  YS02001745              0.01    496.07      0  01:36       0.001     0.000
  YS02001748              0.01    555.47      0  01:36       0.002     0.000
  YS02001751              0.01    465.09      0  01:36       0.001     0.000
  YS02001754              0.01    308.87      0  01:35       0.000     0.000
  YS02001757              0.01     37.04      0  01:36       0.000     0.000
  YS02001759              0.01      5.16      0  01:36       0.000     0.000
  YS02001762              0.01     94.76      0  01:35       0.000     0.000
  YS02001765              0.01     37.59      0  01:35       0.000     0.000
  YS02001767              0.01    221.96      0  01:35       0.000     0.000
  YS02001770              0.02    434.52      0  01:35       0.004     0.000
  YS02001779              0.24    743.89      0  01:39       0.383     0.000
  YS02001887              0.01      3.36      0  02:24       0.000     0.000
  YS02001890              0.47   1449.53      0  02:25       0.846     0.000
  YS02001907              0.83   4027.14      0  02:25       4.982     0.000
  YS02001915              0.23   1669.38      0  02:25       0.664     0.000
  YS02001918              0.02     20.64      0  02:25       0.000     0.000
  YS02163601              0.01      9.53      0  01:46       0.000     0.000
  
  
  **********************
  Storage Volume Summary
  **********************
  
  --------------------------------------------------------------------------------------------------
                         Average     Avg  Evap Exfil       Maximum     Max    Time of Max    Maximum
                          Volume    Pcnt  Pcnt  Pcnt        Volume    Pcnt     Occurrence    Outflow
  Storage Unit           1000 m3    Full  Loss  Loss       1000 m3    Full    days hr:min        LPS
  --------------------------------------------------------------------------------------------------
  CC-storage               2.314      36     0     0         4.908      77       0  02:19    1766.00
  JK-storage               0.062      21     0     0         0.151      52       0  00:00    2000.00
  
  
  ***********************
  Outfall Loading Summary
  ***********************
  
  -----------------------------------------------------------
                         Flow       Avg       Max       Total
                         Freq      Flow      Flow      Volume
  Outfall Node           Pcnt       LPS       LPS    10^6 ltr
  -----------------------------------------------------------
  CC-1                  14.44    683.00    683.00       4.193
  CC-2                  11.32    683.00    683.00       3.157
  JK-1                   9.03   1000.00   1000.00       3.305
  JK-2                   8.90   1000.00   1000.00       3.197
  WSC                  100.00    227.47    429.02       6.547
  -----------------------------------------------------------
  System                28.74   3593.47    429.02      20.400
  
  
  ********************
  Link Flow Summary
  ********************
  
  -----------------------------------------------------------------------------
                                 Maximum  Time of Max   Maximum    Max/    Max/
                                  |Flow|   Occurrence   |Veloc|    Full    Full
  Link                 Type          LPS  days hr:min     m/sec    Flow   Depth
  -----------------------------------------------------------------------------
  1                    CONDUIT    429.02     0  03:17      2.63    0.15    0.26
  WS02003060WS02003069 CONDUIT    426.96     0  03:08      1.54    0.17    0.29
  WS02003066WSF200     CONDUIT    410.43     0  03:08      2.67    0.07    0.19
  WS02003067WS02003066 CONDUIT    410.43     0  03:07      1.04    0.13    0.38
  WS02003069WS02003072 CONDUIT    427.22     0  03:09      1.26    0.21    0.34
  WS02003072WS02003073 CONDUIT    427.20     0  03:16      1.31    0.92    0.33
  WS02004401WS02004402 CONDUIT   1248.69     0  00:01      2.52    1.50    0.77
  WS02004402WS02004403 CONDUIT    929.44     0  00:01      2.21    1.34    0.79
  WS02004403WS02004404 CONDUIT    877.02     0  00:01      2.01    0.63    0.84
  WS02004404WS02004405 CONDUIT    827.31     0  00:01      2.30    8.11    0.88
  WS02004405WS02004406 CONDUIT    768.45     0  00:02      2.19    1.52    0.88
  WS02004406WS02004407 CONDUIT    410.63     0  02:58      0.89    0.18    0.57
  WS02004407WS02004409 CONDUIT    410.52     0  02:58      2.06    0.15    0.42
  WS02004409WS02004410 CONDUIT    410.51     0  03:04      1.39    0.53    0.58
  WS02004410WS02004411 CONDUIT    410.48     0  03:06      1.32    0.56    0.60
  WS02004411WS02004412 CONDUIT    410.49     0  03:07      1.28    0.58    0.61
  WS02004412WS02004413 CONDUIT    410.52     0  03:07      1.25    0.27    0.70
  WS02004413WS02003067 CONDUIT    410.42     0  03:07      0.96    0.18    0.53
  WS02006109WS02006110 CONDUIT   1446.81     0  00:00      2.88    2.78    1.00
  WS02006110WS02006113 CONDUIT    517.18     0  00:00      1.03    0.47    1.00
  WS02006111WS02006112 CONDUIT   2307.30     0  00:00      9.18    1.10    1.00
  WS02006112WS02006115 CONDUIT    953.54     0  00:00      1.24    0.56    1.00
  WS02006113WS02006111 CONDUIT   1180.41     0  00:00      2.35    1.41    1.00
  WS02006115WS02006116 CONDUIT   1264.47     0  00:00      1.74    1.62    1.00
  WS02006116WS02004401 CONDUIT   1786.04     0  00:00      2.94    2.46    0.77
  WS02006228WS02006109 CONDUIT    869.18     0  00:00      1.91    3.80    1.00
  WS02006229WS02006228 CONDUIT    470.55     0  00:00      0.94    1.56    1.00
  WS02006230WS02006229 CONDUIT    696.39     0  00:00      1.89   15.50    1.00
  WS02006231WS02006230 CONDUIT    400.10     0  02:50      1.91    6.07    0.76
  WS02006232WS02006231 CONDUIT    400.16     0  02:50      1.80    0.84    0.92
  WS02006234WS02006232 CONDUIT    400.15     0  02:16      1.04    0.81    1.00
  WS02006235WS02006234 CONDUIT    400.84     0  02:16      1.04    4.23    0.99
  WS02006238WS02006235 CONDUIT    401.27     0  01:59      1.04    0.90    1.00
  WS02006239WS02006238 CONDUIT    400.84     0  02:15      1.04    1.28    1.00
  WS02006240WS02006239 CONDUIT    400.58     0  02:24      1.08    1.26    1.00
  WS02006242WS02006240 CONDUIT    400.71     0  01:58      1.05    1.59    1.00
  WS02006243WS02006242 CONDUIT    400.68     0  02:24      1.16    0.86    1.00
  WS02006245WS02006243 CONDUIT    401.13     0  02:14      1.28    1.19    1.00
  WS02006247WS02006245 CONDUIT    401.47     0  01:57      1.25    3.18    1.00
  WS02006248WS02006247 CONDUIT    400.60     0  02:06      1.28    0.87    1.00
  WS02006249WS02006248 CONDUIT    401.10     0  01:58      1.31    2.20    1.00
  WS02006251WS02006249 CONDUIT    420.04     0  01:40      1.78    1.21    1.00
  WS02006252WS02006251 CONDUIT    400.86     0  02:08     18.24    1.47    1.00
  WS02006256WS02006235 CONDUIT      9.47     0  00:03      0.77    0.10    1.00
  WSF200WS02003060     CONDUIT    410.48     0  03:08      1.92    0.09    0.24
  YS02001580YS02001583 CONDUIT    171.34     0  01:33      0.90    0.66    1.00
  YS02001583YS02001586 CONDUIT    203.82     0  01:33      0.92    0.31    1.00
  YS02001586YS02001590 CONDUIT    319.75     0  01:58      1.28    0.56    1.00
  YS02001590YS02001593 CONDUIT    318.47     0  01:58      1.13    2.00    1.00
  YS02001593YS02001596 CONDUIT    318.02     0  02:09      1.73    0.50    1.00
  YS02001596YS02001600 CONDUIT    317.95     0  02:06      1.23    0.62    1.00
  YS02001600YS02001601 CONDUIT    318.26     0  01:58      1.13    0.55    1.00
  YS02001601YS02001602 CONDUIT    579.29     0  01:33      2.05    2.09    1.00
  YS02001602YS02001605 CONDUIT    579.28     0  01:33      2.05   12.26    1.00
  YS02001605YS02001607 CONDUIT    579.27     0  01:33      2.05    3.18    1.00
  YS02001607YS02001610 CONDUIT    551.05     0  01:33      0.72    0.52    1.00
  YS02001610YS02001613 CONDUIT    554.27     0  01:33      0.71    0.64    1.00
  YS02001613YS02001616 CONDUIT    559.02     0  01:33      0.71    0.48    1.00
  YS02001616YS02001619 CONDUIT    511.85     0  01:42      0.69    0.89    1.00
  YS02001619YS02001622 CONDUIT    998.54     0  01:41      1.30    1.47    1.00
  YS02001622YS02001625 CONDUIT    998.66     0  01:41      1.27    0.53    1.00
  YS02001625YS02001629 CONDUIT    956.90     0  01:34      1.22    0.46    1.00
  YS02001629YS02163301 CONDUIT    874.73     0  01:34      1.11    1.08    1.00
  YS02001633YS02163601 CONDUIT   1422.74     0  01:34      1.81    1.49    1.00
  YS02001641YS02001644 CONDUIT   1422.14     0  01:34      1.81    4.60    1.00
  YS02001644YS02001647 CONDUIT   1952.50     0  01:35      2.49    1.15    1.00
  YS02001647YS02001649 CONDUIT   1969.22     0  01:35      2.51    1.04    1.00
  YS02001649YS02001757 CONDUIT   2225.33     0  01:35      2.83    1.35    1.00
  YS02001652YS02001649 CONDUIT   1089.48     0  01:37      1.39    0.54    1.00
  YS02001655YS02001652 CONDUIT   1089.02     0  01:37      1.56    0.53    1.00
  YS02001658YS02001655 CONDUIT   1088.95     0  01:37      2.06    0.46    1.00
  YS02001661YS02001658 CONDUIT   1088.98     0  01:37      2.47    0.43    1.00
  YS02001664YS02001661 CONDUIT   1088.06     0  01:37      2.57    0.34    1.00
  YS02001745YS02001748 CONDUIT    688.98     0  01:38      2.47    0.27    1.00
  YS02001748YS02001751 CONDUIT    686.67     0  01:38      1.94    0.35    1.00
  YS02001751YS02001754 CONDUIT    686.43     0  01:38      1.59    0.33    1.00
  YS02001754YS02001757 CONDUIT    686.48     0  01:38      0.87    0.28    1.00
  YS02001757CaochengTiaoxuchi CONDUIT   3634.15     0  01:37      4.81    1.57    1.00
  YS02001759YS02001757 CONDUIT   1562.00     0  01:36      1.99    1.11    1.00
  YS02001762YS02001759 CONDUIT    770.88     0  01:36      0.98    0.89    1.00
  YS02001765YS02001762 CONDUIT    771.48     0  01:36      0.98    0.72    1.00
  YS02001767YS02001765 CONDUIT    773.30     0  01:36      0.98    0.97    1.00
  YS02001770YS02001767 CONDUIT    773.90     0  01:36      0.99    3.07    1.00
  YS02001774YS02001770 CONDUIT    743.68     0  01:39      0.95    0.48    1.00
  YS02001779YS02001774 CONDUIT    743.94     0  01:39      0.95    0.37    1.00
  YS02001783YS02001784 CONDUIT   1245.71     0  02:25      2.48    1.72    1.00
  YS02001784YS02001785 CONDUIT   1245.76     0  02:25      2.48    2.90    1.00
  YS02001786YS02001788 CONDUIT   1245.81     0  02:25      2.61    2.40    0.90
  YS02001788YS02001790 CONDUIT   1254.03     0  02:25      2.82    0.92    0.86
  YS02001790YS02001791 CONDUIT   1321.32     0  02:22      3.46    1.44    0.72
  YS02001791YS02001793 CONDUIT   1277.82     0  02:21      6.83    0.55    0.42
  YS02001793JiankangQianchi CONDUIT   1277.46     0  02:21      2.56    0.10    0.61
  YS02001882YS02001884 CONDUIT     25.87     0  01:37      0.24    0.03    1.00
  YS02001884YS02001887 CONDUIT     40.88     0  03:03      0.19    0.05    1.00
  YS02001887YS02001890 CONDUIT   1967.00     0  02:25      2.50    3.37    1.00
  YS02001890YS02001895 CONDUIT    518.79     0  02:19      0.66    0.24    1.00
  YS02001895YS02001898 CONDUIT    518.22     0  02:21      0.66    0.90    1.00
  YS02001898YS02001901 CONDUIT    518.27     0  02:25      0.66    0.33    1.00
  YS02001901YS02001904 CONDUIT    518.10     0  02:24      0.66    0.80    1.00
  YS02001904YS02001907 CONDUIT    518.73     0  02:19      0.66    0.18    1.00
  YS02001907YS02006553 CONDUIT   1518.39     0  02:25      1.69    1.79    1.00
  YS02001910YS02001907 CONDUIT   1993.01     0  02:24      2.54    1.12    1.00
  YS02001915YS02001910 CONDUIT   1993.14     0  02:21      2.54    0.99    1.00
  YS02001918YS02001915 CONDUIT   1214.62     0  02:25      1.55    0.67    1.00
  YS02001920YS02001918 CONDUIT   1228.04     0  02:25      1.56    1.19    1.00
  YS02001923YS02001920 CONDUIT   1226.65     0  02:25      1.56    0.55    1.00
  YS02001926YS02001923 CONDUIT   1223.65     0  02:25      1.56    1.75    1.00
  YS02001929YS02001926 CONDUIT   1222.01     0  02:25      1.56    0.58    1.00
  YS02006553YS02006556 CONDUIT   1516.36     0  02:25      1.93    1.30    1.00
  YS02006556YS02006558 CONDUIT   1513.70     0  02:25      1.93    1.20    1.00
  YS02006558YS02006561 CONDUIT   1245.10     0  02:25      4.40    2.75    1.00
  YS02006561YS02001783 CONDUIT   1245.45     0  02:25      2.48    0.65    1.00
  YS02163301YS02001633 CONDUIT    874.53     0  01:34      1.11    0.82    1.00
  YS02163601YS02164001 CONDUIT   1422.63     0  01:34      1.81    1.26    1.00
  YS02164001YS02001641 CONDUIT   1422.07     0  01:34      1.81    1.94    1.00
  CC-R1                PUMP       683.00     0  00:00              1.00
  CC-R2                PUMP       683.00     0  00:00              1.00
  CC-S1                PUMP       200.00     0  00:06              1.00
  CC-S2                PUMP       200.00     0  01:39              1.00
  JK-R1                PUMP      1000.00     0  00:00              1.00
  JK-R2                PUMP      1000.00     0  01:21              1.00
  JK-S                 PUMP         0.00     0  00:00              0.00
  
  
  ***************************
  Flow Classification Summary
  ***************************
  
  -------------------------------------------------------------------------------------
                      Adjusted    ---------- Fraction of Time in Flow Class ---------- 
                       /Actual         Up    Down  Sub   Sup   Up    Down  Norm  Inlet 
  Conduit               Length    Dry  Dry   Dry   Crit  Crit  Crit  Crit  Ltd   Ctrl  
  -------------------------------------------------------------------------------------
  1                       1.00   0.00  0.00  0.00  0.00  1.00  0.00  0.00  0.16  0.00
  WS02003060WS02003069    1.00   0.00  0.00  0.00  0.97  0.03  0.00  0.00  0.62  0.00
  WS02003066WSF200        1.00   0.02  0.00  0.00  0.00  0.98  0.00  0.00  0.97  0.00
  WS02003067WS02003066    1.00   0.01  0.01  0.00  0.98  0.00  0.00  0.00  0.00  0.00
  WS02003069WS02003072    1.00   0.00  0.00  0.00  1.00  0.00  0.00  0.00  0.70  0.00
  WS02003072WS02003073    1.00   0.00  0.00  0.00  0.00  0.00  0.00  1.00  0.00  0.00
  WS02004401WS02004402    1.00   0.00  0.00  0.00  1.00  0.00  0.00  0.00  0.00  0.00
  WS02004402WS02004403    1.00   0.00  0.00  0.00  1.00  0.00  0.00  0.00  0.00  0.00
  WS02004403WS02004404    1.00   0.00  0.00  0.00  1.00  0.00  0.00  0.00  0.00  0.00
  WS02004404WS02004405    1.00   0.00  0.00  0.00  1.00  0.00  0.00  0.00  0.01  0.00
  WS02004405WS02004406    1.00   0.00  0.00  0.00  1.00  0.00  0.00  0.00  0.00  0.00
  WS02004406WS02004407    1.00   0.00  0.00  0.00  1.00  0.00  0.00  0.00  0.00  0.00
  WS02004407WS02004409    1.00   0.00  0.00  0.00  1.00  0.00  0.00  0.00  0.99  0.00
  WS02004409WS02004410    1.00   0.00  0.00  0.00  1.00  0.00  0.00  0.00  0.00  0.00
  WS02004410WS02004411    1.00   0.00  0.00  0.00  1.00  0.00  0.00  0.00  0.00  0.00
  WS02004411WS02004412    1.00   0.00  0.00  0.00  1.00  0.00  0.00  0.00  0.00  0.00
  WS02004412WS02004413    1.00   0.00  0.00  0.00  1.00  0.00  0.00  0.00  0.00  0.00
  WS02004413WS02003067    1.00   0.00  0.01  0.00  0.00  0.00  0.99  0.00  0.00  0.00
  WS02006109WS02006110    1.00   0.00  0.00  0.00  1.00  0.00  0.00  0.00  0.00  0.00
  WS02006110WS02006113    1.00   0.00  0.00  0.00  1.00  0.00  0.00  0.00  0.00  0.00
  WS02006111WS02006112    1.00   0.00  0.00  0.00  1.00  0.00  0.00  0.00  1.00  0.00
  WS02006112WS02006115    1.00   0.00  0.00  0.00  1.00  0.00  0.00  0.00  0.00  0.00
  WS02006113WS02006111    1.00   0.00  0.00  0.00  0.00  1.00  0.00  0.00  0.20  0.00
  WS02006115WS02006116    1.00   0.00  0.00  0.00  1.00  0.00  0.00  0.00  0.00  0.00
  WS02006116WS02004401    1.00   0.00  0.00  0.00  1.00  0.00  0.00  0.00  0.00  0.00
  WS02006228WS02006109    1.00   0.00  0.00  0.00  1.00  0.00  0.00  0.00  0.00  0.00
  WS02006229WS02006228    1.00   0.00  0.00  0.00  1.00  0.00  0.00  0.00  0.00  0.00
  WS02006230WS02006229    1.00   0.00  0.00  0.00  1.00  0.00  0.00  0.00  0.00  0.00
  WS02006231WS02006230    1.00   0.00  0.00  0.00  0.19  0.00  0.80  0.00  0.00  0.00
  WS02006232WS02006231    1.00   0.00  0.00  0.00  0.99  0.00  0.00  0.00  0.00  0.00
  WS02006234WS02006232    1.00   0.00  0.00  0.00  1.00  0.00  0.00  0.00  0.00  0.00
  WS02006235WS02006234    1.00   0.00  0.00  0.00  0.97  0.00  0.03  0.00  0.00  0.00
  WS02006238WS02006235    1.00   0.00  0.00  0.00  1.00  0.00  0.00  0.00  0.00  0.00
  WS02006239WS02006238    1.00   0.00  0.00  0.00  1.00  0.00  0.00  0.00  0.02  0.00
  WS02006240WS02006239    1.00   0.01  0.00  0.00  0.91  0.00  0.00  0.08  0.01  0.00
  WS02006242WS02006240    1.00   0.01  0.00  0.00  0.97  0.00  0.01  0.00  0.00  0.00
  WS02006243WS02006242    1.00   0.01  0.00  0.00  0.98  0.00  0.00  0.01  0.27  0.00
  WS02006245WS02006243    1.00   0.01  0.00  0.00  0.97  0.00  0.00  0.02  0.00  0.00
  WS02006247WS02006245    1.00   0.01  0.00  0.00  0.98  0.00  0.00  0.01  0.00  0.00
  WS02006248WS02006247    1.00   0.00  0.00  0.00  0.99  0.00  0.00  0.01  0.27  0.00
  WS02006249WS02006248    1.00   0.00  0.00  0.00  0.91  0.00  0.09  0.00  0.00  0.00
  WS02006251WS02006249    1.00   0.00  0.00  0.00  0.99  0.00  0.00  0.00  0.23  0.00
  WS02006252WS02006251    1.00   0.00  0.06  0.00  0.00  0.00  0.94  0.00  0.00  0.00
  WS02006256WS02006235    1.00   0.00  0.00  0.00  1.00  0.00  0.00  0.00  0.00  0.00
  WSF200WS02003060        1.00   0.00  0.02  0.00  0.09  0.89  0.00  0.00  0.57  0.00
  YS02001580YS02001583    1.00   0.21  0.62  0.00  0.17  0.00  0.00  0.00  0.68  0.00
  YS02001583YS02001586    1.00   0.33  0.47  0.00  0.20  0.00  0.00  0.00  0.68  0.00
  YS02001586YS02001590    1.00   0.15  0.00  0.00  0.43  0.06  0.00  0.36  0.33  0.00
  YS02001590YS02001593    1.00   0.15  0.00  0.00  0.13  0.00  0.72  0.00  0.00  0.00
  YS02001593YS02001596    1.00   0.15  0.00  0.00  0.15  0.01  0.00  0.69  0.02  0.00
  YS02001596YS02001600    1.00   0.15  0.00  0.00  0.20  0.01  0.00  0.64  0.04  0.00
  YS02001600YS02001601    1.00   0.15  0.00  0.00  0.85  0.00  0.00  0.00  0.59  0.00
  YS02001601YS02001602    1.00   0.15  0.00  0.00  0.85  0.00  0.00  0.00  0.00  0.00
  YS02001602YS02001605    1.00   0.15  0.00  0.00  0.85  0.00  0.00  0.00  0.00  0.00
  YS02001605YS02001607    1.00   0.15  0.00  0.00  0.85  0.00  0.00  0.00  0.00  0.00
  YS02001607YS02001610    1.00   0.15  0.00  0.00  0.85  0.00  0.00  0.00  0.01  0.00
  YS02001610YS02001613    1.00   0.15  0.00  0.00  0.85  0.00  0.00  0.00  0.00  0.00
  YS02001613YS02001616    1.00   0.15  0.00  0.00  0.85  0.00  0.00  0.00  0.00  0.00
  YS02001616YS02001619    1.00   0.15  0.00  0.00  0.85  0.00  0.00  0.00  0.00  0.00
  YS02001619YS02001622    1.00   0.15  0.00  0.00  0.85  0.00  0.00  0.00  0.29  0.00
  YS02001622YS02001625    1.00   0.15  0.00  0.00  0.85  0.00  0.00  0.00  0.03  0.00
  YS02001625YS02001629    1.00   0.15  0.02  0.00  0.17  0.00  0.67  0.00  0.00  0.00
  YS02001629YS02163301    1.00   0.16  0.00  0.00  0.84  0.00  0.00  0.00  0.00  0.00
  YS02001633YS02163601    1.00   0.15  0.00  0.00  0.85  0.00  0.00  0.00  0.01  0.00
  YS02001641YS02001644    1.00   0.15  0.00  0.00  0.85  0.00  0.00  0.00  0.00  0.00
  YS02001644YS02001647    1.00   0.15  0.01  0.00  0.84  0.00  0.00  0.00  0.00  0.00
  YS02001647YS02001649    1.00   0.15  0.01  0.00  0.53  0.31  0.00  0.00  0.55  0.00
  YS02001649YS02001757    1.00   0.00  0.15  0.00  0.63  0.21  0.00  0.00  0.15  0.00
  YS02001652YS02001649    1.00   0.15  0.00  0.00  0.83  0.02  0.00  0.00  0.57  0.00
  YS02001655YS02001652    1.00   0.15  0.00  0.00  0.18  0.01  0.00  0.66  0.05  0.00
  YS02001658YS02001655    1.00   0.15  0.00  0.00  0.72  0.12  0.00  0.00  0.65  0.00
  YS02001661YS02001658    1.00   0.15  0.00  0.00  0.51  0.34  0.00  0.00  0.70  0.00
  YS02001664YS02001661    1.00   0.15  0.00  0.00  0.74  0.11  0.00  0.00  0.84  0.00
  YS02001745YS02001748    1.00   0.15  0.00  0.00  0.11  0.01  0.00  0.73  0.06  0.00
  YS02001748YS02001751    1.00   0.15  0.00  0.00  0.74  0.11  0.00  0.00  0.64  0.00
  YS02001751YS02001754    1.00   0.15  0.00  0.00  0.17  0.00  0.00  0.68  0.04  0.00
  YS02001754YS02001757    1.00   0.00  0.15  0.00  0.84  0.00  0.00  0.00  0.60  0.00
  YS02001757CaochengTiaoxuchi    1.00   0.00  0.00  0.00  0.96  0.04  0.00  0.00  0.57  0.00
  YS02001759YS02001757    1.00   0.00  0.15  0.00  0.84  0.01  0.00  0.00  0.44  0.00
  YS02001762YS02001759    1.00   0.15  0.00  0.00  0.85  0.00  0.00  0.00  0.03  0.00
  YS02001765YS02001762    1.00   0.15  0.00  0.00  0.85  0.00  0.00  0.00  0.50  0.00
  YS02001767YS02001765    1.00   0.15  0.00  0.00  0.85  0.00  0.00  0.00  0.01  0.00
  YS02001770YS02001767    1.00   0.15  0.00  0.00  0.85  0.00  0.00  0.00  0.00  0.00
  YS02001774YS02001770    1.00   0.15  0.00  0.00  0.73  0.00  0.12  0.00  0.01  0.00
  YS02001779YS02001774    1.00   0.15  0.57  0.00  0.28  0.00  0.00  0.00  0.58  0.00
  YS02001783YS02001784    1.00   0.16  0.00  0.00  0.84  0.00  0.00  0.00  0.53  0.00
  YS02001784YS02001785    1.00   0.16  0.00  0.00  0.84  0.00  0.00  0.00  0.35  0.00
  YS02001786YS02001788    1.00   0.16  0.00  0.00  0.69  0.15  0.00  0.00  0.00  0.00
  YS02001788YS02001790    1.00   0.16  0.00  0.00  0.16  0.68  0.00  0.00  0.60  0.00
  YS02001790YS02001791    1.00   0.16  0.00  0.00  0.00  0.83  0.00  0.00  0.13  0.00
  YS02001791YS02001793    1.00   0.16  0.00  0.00  0.00  0.83  0.00  0.00  0.01  0.00
  YS02001793JiankangQianchi    1.00   0.00  0.17  0.00  0.76  0.07  0.00  0.00  0.83  0.00
  YS02001882YS02001884    1.00   0.15  0.00  0.00  0.84  0.00  0.00  0.00  0.00  0.00
  YS02001884YS02001887    1.00   0.15  0.00  0.00  0.85  0.00  0.00  0.00  0.00  0.00
  YS02001887YS02001890    1.00   0.15  0.00  0.00  0.85  0.00  0.00  0.00  0.00  0.00
  YS02001890YS02001895    1.00   0.15  0.01  0.00  0.84  0.00  0.00  0.00  0.00  0.00
  YS02001895YS02001898    1.00   0.16  0.00  0.00  0.84  0.00  0.01  0.00  0.00  0.00
  YS02001898YS02001901    1.00   0.16  0.00  0.00  0.84  0.00  0.00  0.00  0.00  0.00
  YS02001901YS02001904    1.00   0.16  0.00  0.00  0.84  0.00  0.00  0.00  0.00  0.00
  YS02001904YS02001907    1.00   0.15  0.01  0.00  0.84  0.00  0.00  0.00  0.00  0.00
  YS02001907YS02006553    1.00   0.15  0.00  0.00  0.85  0.00  0.00  0.00  0.00  0.00
  YS02001910YS02001907    1.00   0.15  0.00  0.00  0.85  0.00  0.00  0.00  0.01  0.00
  YS02001915YS02001910    1.00   0.15  0.00  0.00  0.84  0.01  0.00  0.00  0.01  0.00
  YS02001918YS02001915    1.00   0.15  0.01  0.00  0.84  0.00  0.00  0.00  0.65  0.00
  YS02001920YS02001918    1.00   0.15  0.00  0.00  0.84  0.00  0.00  0.00  0.00  0.00
  YS02001923YS02001920    1.00   0.15  0.00  0.00  0.85  0.00  0.00  0.00  0.70  0.00
  YS02001926YS02001923    1.00   0.15  0.00  0.00  0.09  0.00  0.76  0.00  0.00  0.00
  YS02001929YS02001926    1.00   0.15  0.00  0.00  0.85  0.00  0.00  0.00  0.75  0.00
  YS02006553YS02006556    1.00   0.15  0.00  0.00  0.85  0.00  0.00  0.00  0.00  0.00
  YS02006556YS02006558    1.00   0.15  0.00  0.00  0.85  0.00  0.00  0.00  0.00  0.00
  YS02006558YS02006561    1.00   0.16  0.00  0.00  0.09  0.76  0.00  0.00  0.13  0.00
  YS02006561YS02001783    1.00   0.16  0.00  0.00  0.16  0.68  0.00  0.00  0.62  0.00
  YS02163301YS02001633    1.00   0.15  0.01  0.00  0.84  0.00  0.00  0.00  0.00  0.00
  YS02163601YS02164001    1.00   0.15  0.00  0.00  0.85  0.00  0.00  0.00  0.01  0.00
  YS02164001YS02001641    1.00   0.15  0.00  0.00  0.85  0.00  0.00  0.00  0.00  0.00
  
  
  *************************
  Conduit Surcharge Summary
  *************************
  
  ----------------------------------------------------------------------------
                                                           Hours        Hours 
                         --------- Hours Full --------   Above Full   Capacity
  Conduit                Both Ends  Upstream  Dnstream   Normal Flow   Limited
  ----------------------------------------------------------------------------
  WS02004401WS02004402        0.01      0.01      0.01      0.01         0.01
  WS02004402WS02004403        0.01      0.01      0.01      0.02         0.01
  WS02004404WS02004405        0.01      0.01      0.01      5.59         0.01
  WS02004405WS02004406        0.01      0.01      0.01      0.01         0.01
  WS02006109WS02006110        0.01      0.01      2.24      0.01         0.01
  WS02006110WS02006113        0.01      0.01      2.20      0.01         0.01
  WS02006111WS02006112        0.01      0.01      2.40      0.01         0.01
  WS02006112WS02006115        0.01      0.01      0.01      0.01         0.01
  WS02006113WS02006111        0.01      0.01      0.01      0.01         0.01
  WS02006115WS02006116        0.01      0.01      0.01      0.01         0.01
  WS02006116WS02004401        0.01      0.01      0.01      0.02         0.01
  WS02006228WS02006109        2.16      2.23      2.17      2.50         2.16
  WS02006229WS02006228        2.15      2.18      2.15      2.37         2.15
  WS02006230WS02006229        2.28      2.35      2.29      5.78         2.28
  WS02006231WS02006230        0.01      0.01      0.01      5.57         0.01
  WS02006232WS02006231        0.01      0.01      2.23      0.01         0.01
  WS02006234WS02006232        2.12      2.12      2.23      0.01         0.01
  WS02006235WS02006234        0.01      0.01      2.17      5.48         0.01
  WS02006238WS02006235        2.18      2.18      2.24      0.01         0.01
  WS02006239WS02006238        2.20      2.23      2.20      2.33         2.20
  WS02006240WS02006239        2.17      2.19      2.17      2.32         2.17
  WS02006242WS02006240        2.18      2.18      2.28      2.39         0.01
  WS02006243WS02006242        2.20      2.20      2.26      0.01         0.01
  WS02006245WS02006243        2.19      2.20      2.19      2.33         2.19
  WS02006247WS02006245        2.20      2.22      2.20      5.44         2.20
  WS02006248WS02006247        2.20      2.20      2.21      0.01         0.01
  WS02006249WS02006248        2.19      2.19      2.21      5.42         0.01
  WS02006251WS02006249        2.20      2.21      2.21      2.33         2.20
  WS02006252WS02006251        2.34      2.34      2.41      2.34         0.01
  WS02006256WS02006235        5.52      5.52      7.62      0.01         0.01
  YS02001580YS02001583        0.80      0.80      0.87      0.01         0.01
  YS02001583YS02001586        0.81      0.81      0.98      0.01         0.01
  YS02001586YS02001590        0.98      0.98      1.06      0.01         0.01
  YS02001590YS02001593        1.06      1.06      1.08      1.14         0.01
  YS02001593YS02001596        1.07      1.07      1.18      0.01         0.01
  YS02001596YS02001600        1.23      1.23      1.34      0.01         0.01
  YS02001600YS02001601        1.42      1.42      1.67      0.01         0.01
  YS02001601YS02001602        1.60      1.60      1.70      1.34         0.01
  YS02001602YS02001605        1.56      1.56      1.60      2.35         0.01
  YS02001605YS02001607        1.52      1.56      1.52      1.65         1.52
  YS02001607YS02001610        1.06      1.06      1.09      0.01         0.01
  YS02001610YS02001613        1.05      1.05      1.09      0.01         0.01
  YS02001613YS02001616        1.01      1.01      1.05      0.01         0.01
  YS02001616YS02001619        1.00      1.00      1.01      0.01         0.02
  YS02001619YS02001622        1.00      1.00      1.00      1.03         0.94
  YS02001622YS02001625        1.00      1.00      1.19      0.01         0.01
  YS02001625YS02001629        0.94      0.94      1.19      0.01         0.01
  YS02001629YS02163301        1.20      1.20      1.21      0.01         0.13
  YS02001633YS02163601        1.23      1.23      1.26      0.32         0.29
  YS02001641YS02001644        1.16      1.19      1.16      1.72         1.15
  YS02001644YS02001647        0.95      0.95      1.16      0.03         0.01
  YS02001647YS02001649        0.95      0.95      1.11      0.01         0.01
  YS02001649YS02001757        1.10      1.11      1.19      0.04         0.05
  YS02001652YS02001649        0.91      0.91      1.11      0.01         0.01
  YS02001655YS02001652        0.61      0.61      0.88      0.01         0.01
  YS02001658YS02001655        0.32      0.32      0.62      0.01         0.01
  YS02001661YS02001658        0.10      0.10      0.32      0.01         0.01
  YS02001664YS02001661        0.01      0.01      0.14      0.01         0.01
  YS02001745YS02001748        0.01      0.01      0.24      0.01         0.01
  YS02001748YS02001751        0.28      0.28      0.45      0.01         0.01
  YS02001751YS02001754        0.45      0.45      0.76      0.01         0.01
  YS02001754YS02001757        0.82      0.82      1.19      0.01         0.01
  YS02001757CaochengTiaoxuchi        1.12      1.19      2.33      0.44         0.35
  YS02001759YS02001757        1.09      1.09      1.19      0.08         0.07
  YS02001762YS02001759        1.05      1.05      1.09      0.01         0.01
  YS02001765YS02001762        0.99      0.99      1.05      0.01         0.01
  YS02001767YS02001765        0.95      0.95      0.99      0.01         0.02
  YS02001770YS02001767        0.94      0.94      0.95      0.66         0.63
  YS02001774YS02001770        0.92      0.92      1.02      0.01         0.01
  YS02001779YS02001774        0.73      0.73      1.02      0.01         0.01
  YS02001783YS02001784        1.10      1.13      1.10      1.40         1.10
  YS02001784YS02001785        0.93      1.10      0.93      1.63         0.93
  YS02001786YS02001788        0.01      0.93      0.01      1.54         0.01
  YS02001790YS02001791        0.01      0.01      0.01      1.07         0.01
  YS02001793JiankangQianchi        0.01      0.01      6.67      0.01         0.01
  YS02001882YS02001884        1.04      1.04      1.06      0.01         0.01
  YS02001884YS02001887        1.10      1.10      1.12      0.01         0.01
  YS02001887YS02001890        1.14      1.14      1.16      0.39         0.01
  YS02001890YS02001895        1.02      1.02      1.19      0.01         0.01
  YS02001895YS02001898        1.01      1.01      1.02      0.01         0.01
  YS02001898YS02001901        1.02      1.02      1.09      0.01         0.01
  YS02001901YS02001904        1.08      1.08      1.09      0.01         0.01
  YS02001904YS02001907        1.08      1.08      1.52      0.01         0.01
  YS02001907YS02006553        1.64      1.64      1.68      0.10         0.10
  YS02001910YS02001907        1.18      1.18      1.49      0.26         0.26
  YS02001915YS02001910        1.04      1.04      1.18      0.01         0.03
  YS02001918YS02001915        0.90      0.90      1.04      0.01         0.01
  YS02001920YS02001918        0.90      0.90      0.92      0.08         0.01
  YS02001923YS02001920        0.85      0.85      0.92      0.01         0.01
  YS02001926YS02001923        0.41      0.41      0.44      0.21         0.01
  YS02001929YS02001926        0.28      0.28      0.44      0.01         0.01
  YS02006553YS02006556        1.33      1.33      1.51      0.06         0.06
  YS02006556YS02006558        1.45      1.45      1.53      0.05         0.01
  YS02006558YS02006561        0.95      1.31      0.95      1.60         0.95
  YS02006561YS02001783        0.86      0.86      1.13      0.01         0.01
  YS02163301YS02001633        1.21      1.21      1.24      0.01         0.01
  YS02163601YS02164001        1.19      1.19      1.26      0.03         0.01
  YS02164001YS02001641        1.19      1.19      1.19      0.82         0.79
  
  
  ***************
  Pumping Summary
  ***************
  
  ---------------------------------------------------------------------------------------------------------
                                                  Min       Avg       Max     Total     Power    % Time Off
                        Percent   Number of      Flow      Flow      Flow    Volume     Usage    Pump Curve
  Pump                 Utilized   Start-Ups       LPS       LPS       LPS  10^6 ltr     Kw-hr    Low   High
  ---------------------------------------------------------------------------------------------------------
  CC-R1                   21.32           2      0.00    683.00    683.00     4.194     80.07    0.0    5.3
  CC-R2                   16.06           2      0.00    683.00    683.00     3.158     60.84    0.0    7.1
  CC-S1                   69.64          60      0.00    200.00    200.00     4.011     23.87    0.0    0.0
  CC-S2                   29.21           1      0.00    200.00    200.00     1.683      8.74    0.0    0.0
  JK-R1                   11.49         246      0.00   1000.00   1000.00     3.310     19.83    0.0    0.0
  JK-R2                   11.11         245      0.00   1000.00   1000.00     3.200     18.96    0.0    0.0
  JK-S                     0.00           0      0.00      0.00      0.00     0.000      0.00    0.0    0.0
  

  Analysis begun on:  Fri Sep  8 22:13:02 2023
  Analysis ended on:  Fri Sep  8 22:13:49 2023
  Total elapsed time: 00:00:47