
  OWA STORM WATER MANAGEMENT MODEL - VERSION v5.1.14 (OWA 2022-07-31)
  --------------------------------------------------------------

  WARNING 04: minimum elevation drop used for Conduit WS02004404WS02004405
  WARNING 03: negative offset ignored for Link YS02001904YS02001907
  
  *********************************************************
  NOTE: The summary statistics displayed in this report are
  based on results found at every computational time step,  
  not just on results from each reporting time step.
  *********************************************************
  
  ****************
  Analysis Options
  ****************
  Flow Units ............... LPS
  Process Models:
    Rainfall/Runoff ........ YES
    RDII ................... NO
    Snowmelt ............... NO
    Groundwater ............ NO
    Flow Routing ........... YES
    Ponding Allowed ........ NO
    Water Quality .......... NO
  Infiltration Method ...... HORTON
  Flow Routing Method ...... DYNWAVE
  Surcharge Method ......... EXTRAN
  Starting Date ............ 08/28/2015 08:00:00
  Ending Date .............. 08/28/2015 16:00:00
  Antecedent Dry Days ...... 8.0
  Report Time Step ......... 00:01:00
  Wet Time Step ............ 00:01:00
  Dry Time Step ............ 00:01:00
  Routing Time Step ........ 30.00 sec
  Variable Time Step ....... YES
  Maximum Trials ........... 8
  Number of Threads ........ 4
  Head Tolerance ........... 0.001500 m
  
  
  **************************        Volume         Depth
  Runoff Quantity Continuity     hectare-m            mm
  **************************     ---------       -------
  Total Precipitation ......         5.410        89.304
  Evaporation Loss .........         0.000         0.000
  Infiltration Loss ........         0.253         4.170
  Surface Runoff ...........         5.098        84.151
  Final Storage ............         0.061         1.008
  Continuity Error (%) .....        -0.028
  
  
  **************************        Volume        Volume
  Flow Routing Continuity        hectare-m      10^6 ltr
  **************************     ---------     ---------
  Dry Weather Inflow .......         0.630         6.296
  Wet Weather Inflow .......         5.098        50.978
  Groundwater Inflow .......         0.000         0.000
  RDII Inflow ..............         0.000         0.000
  External Inflow ..........         0.105         1.045
  External Outflow .........         2.788        27.880
  Flooding Loss ............         3.032        30.319
  Evaporation Loss .........         0.000         0.000
  Exfiltration Loss ........         0.000         0.000
  Initial Stored Volume ....         0.303         3.031
  Final Stored Volume ......         0.319         3.186
  Continuity Error (%) .....        -0.057
  
  
  *************************
  Highest Continuity Errors
  *************************
  Node YS02001583 (-14.71%)
  Node WS02006256 (7.88%)
  Node YS02001884 (5.16%)
  Node WS02006252 (-1.12%)
  Node HS02004842 (1.10%)
  
  
  ***************************
  Time-Step Critical Elements
  ***************************
  Link WS02006280WS02006229 (55.88%)
  Link WS02003066WSF200 (7.63%)
  Link WS02006238WS02006235 (6.31%)
  Link WS02004404WS02004405 (5.29%)
  Link YS02001791YS02001793 (4.40%)
  
  
  ********************************
  Highest Flow Instability Indexes
  ********************************
  Link WS02006113WS02006111 (36)
  Link WS02004404WS02004405 (33)
  Link WS02006229WS02006228 (30)
  Link WS02006238WS02006235 (30)
  Link WS02004403WS02004404 (29)
  
  
  *************************
  Routing Time Step Summary
  *************************
  Minimum Time Step           :     0.01 sec
  Average Time Step           :     2.69 sec
  Maximum Time Step           :     7.60 sec
  Percent in Steady State     :    -0.00
  Average Iterations per Step :     4.49
  Percent Not Converging      :    28.42
  
  
  ***************************
  Subcatchment Runoff Summary
  ***************************
  
  ------------------------------------------------------------------------------------------------------------------------------
                            Total      Total      Total      Total     Imperv       Perv      Total       Total     Peak  Runoff
                           Precip      Runon       Evap      Infil     Runoff     Runoff     Runoff      Runoff   Runoff   Coeff
  Subcatchment                 mm         mm         mm         mm         mm         mm         mm    10^6 ltr      LPS
  ------------------------------------------------------------------------------------------------------------------------------
  sub0                      99.00       0.00       0.00       1.04      90.84       5.89      96.73        0.08    55.97   0.977
  sub1                      99.00       0.00       0.00       1.81      86.87       9.08      95.95        0.64   406.82   0.969
  sub10                     99.00       0.00       0.00       1.27      89.81       6.66      96.46        1.06   685.45   0.974
  sub11                     99.00       0.00       0.00       1.24      89.83       6.68      96.51        1.12   743.66   0.975
  sub12                     99.00       0.00       0.00       2.02      84.97      10.85      95.82        0.84   582.80   0.968
  sub14                     99.00       0.00       0.00       1.42      88.84       7.49      96.33        0.92   600.48   0.973
  sub15                     99.00       0.00       0.00       5.72      68.34      23.99      92.32        1.59   993.74   0.933
  sub16                     99.00       0.00       0.00       5.87      65.43      26.80      92.24        0.97   640.71   0.932
  sub17                     99.00       0.00       0.00       5.73      66.41      25.96      92.36        0.79   522.64   0.933
  sub2                      99.00       0.00       0.00       8.24      61.47      28.40      89.87        0.84   466.84   0.908
  sub22                     99.00       0.00       0.00       8.70      55.66      33.87      89.53        5.66  3442.26   0.904
  sub23                     99.00       0.00       0.00       7.07      61.52      29.57      91.09        4.34  2752.85   0.920
  sub3                      99.00       0.00       0.00       8.98      61.43      27.65      89.08        2.01  1030.26   0.900
  sub4                      99.00       0.00       0.00       2.05      86.69       8.84      95.53        1.99  1077.05   0.965
  sub5                      99.00       0.00       0.00       1.10      90.77       5.83      96.60        1.09   697.26   0.976
  sub60                     81.29       0.00       0.00       1.85      70.35       7.91      78.26        1.03   633.18   0.963
  sub61                     81.29       0.00       0.00       2.67      66.36      11.15      77.51        1.42   870.88   0.953
  sub62                     81.29       0.00       0.00       1.23      73.52       5.28      78.79        2.16  1220.92   0.969
  sub63                     81.29       0.00       0.00       4.89      56.76      18.70      75.46        1.71   948.69   0.928
  sub64                     81.29       0.00       0.00       2.48      67.90       9.72      77.63        1.86   975.23   0.955
  sub65                     81.29       0.00       0.00       2.14      69.48       8.43      77.91        2.14  1084.15   0.958
  sub66                     81.29       0.00       0.00       5.96      56.65      17.62      74.27        3.46  1379.27   0.914
  sub67                     81.29       0.00       0.00       1.19      73.56       5.32      78.88        1.47   976.69   0.970
  sub68                     81.29       0.00       0.00       2.21      68.74       9.17      77.91        2.14  1254.15   0.958
  sub69                     81.29       0.00       0.00       1.96      69.00      10.24      79.23        2.93  1459.46   0.975
  sub7                      99.00       0.00       0.00       1.40      88.86       7.52      96.38        0.32   218.00   0.973
  sub70                     81.29       0.00       0.00       6.41      53.49      21.23      74.73        2.16   781.26   0.919
  sub71                     81.29       0.00       0.00       1.26      73.47       5.25      78.72        2.06  1056.31   0.968
  sub72                     81.29       0.00       0.00       1.12      74.21       4.57      78.78        1.08   503.04   0.969
  sub8                      99.00       0.00       0.00       1.42      88.85       7.50      96.34        0.62   406.09   0.973
  sub9                      99.00       0.00       0.00       1.42      88.84       7.49      96.34        0.46   304.44   0.973
  
  
  ******************
  Node Depth Summary
  ******************
  
  ---------------------------------------------------------------------------------
                                 Average  Maximum  Maximum  Time of Max    Reported
                                   Depth    Depth      HGL   Occurrence   Max Depth
  Node                 Type       Meters   Meters   Meters  days hr:min      Meters
  ---------------------------------------------------------------------------------
  HS02004478           JUNCTION     0.34     1.61    10.83     0  02:27        1.60
  HS02004479           JUNCTION     0.42     1.71    10.91     0  02:16        1.71
  HS02004480           JUNCTION     0.39     1.68    10.92     0  02:16        1.68
  HS02004770           JUNCTION     0.38     1.42    11.25     0  02:10        1.42
  HS02004777           JUNCTION     0.40     1.48    11.28     0  02:27        1.48
  HS02004785           JUNCTION     0.29     1.40    11.30     0  02:33        1.40
  HS02004788           JUNCTION     0.25     1.42    11.32     0  02:27        1.42
  HS02004792           JUNCTION     0.33     1.60    11.12     0  02:11        1.60
  HS02004799           JUNCTION     0.46     1.76    10.97     0  02:15        1.76
  HS02004802           JUNCTION     0.44     1.83    10.96     0  02:32        1.83
  HS02004807           JUNCTION     0.42     1.92    11.09     0  02:27        1.92
  HS02004817           JUNCTION     0.73     2.41    11.26     0  02:35        2.41
  HS02004824           JUNCTION     0.28     2.01    11.41     0  02:15        2.01
  HS02004830           JUNCTION     0.28     2.03    11.50     0  02:15        2.00
  HS02004837           JUNCTION     0.24     2.00    11.58     0  02:15        1.97
  HS02004842           JUNCTION     0.54     2.22    11.49     0  02:15        2.22
  HS02004848           JUNCTION     0.22     2.04    11.64     0  02:32        2.04
  HS02004852           JUNCTION     0.23     2.12    11.63     0  02:15        2.04
  HS02004856           JUNCTION     0.29     2.07    11.50     0  02:32        2.07
  HS02004862           JUNCTION     0.24     2.00    11.38     0  02:15        2.00
  HS02004870           JUNCTION     0.23     2.10    11.39     0  02:15        2.08
  HS02004876           JUNCTION     0.30     2.26    11.29     0  02:32        2.26
  HS02004881           JUNCTION     0.22     1.98    11.01     0  02:32        1.98
  HS02004901           JUNCTION     0.38     1.42    11.24     0  02:10        1.42
  WS02001211           JUNCTION     0.65     0.83     5.67     0  02:40        0.83
  WS02001212           JUNCTION     0.40     0.60     5.66     0  02:39        0.59
  WS02001213           JUNCTION     0.62     0.89     5.65     0  02:39        0.89
  WS02003059           JUNCTION     0.69     0.96     5.65     0  02:38        0.96
  WS02003060           JUNCTION     0.41     0.71     5.64     0  02:37        0.71
  WS02003066           JUNCTION     0.25     0.47     6.03     0  02:36        0.47
  WS02003067           JUNCTION     0.56     0.91     6.23     0  02:36        0.90
  WS02003069           JUNCTION     0.46     0.80     5.39     0  02:37        0.80
  WS02003072           JUNCTION     0.52     0.83     5.20     0  02:38        0.83
  WS02003073           JUNCTION     0.31     0.53     4.60     0  02:39        0.53
  WS02004138           JUNCTION     0.13     0.14     7.39     0  00:29        0.14
  WS02004139           JUNCTION     0.59     0.77     5.68     0  02:39        0.77
  WS02004401           JUNCTION     0.86     2.10     8.10     0  02:36        2.09
  WS02004402           JUNCTION     0.87     2.03     7.99     0  02:36        2.02
  WS02004403           JUNCTION     0.87     1.94     7.87     0  02:36        1.93
  WS02004404           JUNCTION     0.93     1.94     7.79     0  02:36        1.93
  WS02004405           JUNCTION     0.91     1.88     7.73     0  02:36        1.87
  WS02004406           JUNCTION     0.89     1.75     7.58     0  02:36        1.73
  WS02004407           JUNCTION     0.32     1.08     7.39     0  02:36        1.06
  WS02004409           JUNCTION     0.60     1.50     7.27     0  02:36        1.48
  WS02004410           JUNCTION     0.60     1.38     7.10     0  02:36        1.37
  WS02004411           JUNCTION     0.60     1.28     6.96     0  02:36        1.26
  WS02004412           JUNCTION     0.59     1.16     6.80     0  02:36        1.14
  WS02004413           JUNCTION     0.72     1.18     6.65     0  02:36        1.17
  WS02006109           JUNCTION     1.14     2.64     9.26     0  02:11        2.64
  WS02006110           JUNCTION     1.06     2.48     9.07     0  02:36        2.47
  WS02006111           JUNCTION     0.55     1.98     8.69     0  02:36        1.98
  WS02006112           JUNCTION     1.10     2.68     8.56     0  02:36        2.68
  WS02006113           JUNCTION     0.63     1.99     8.88     0  02:36        1.99
  WS02006115           JUNCTION     0.80     2.24     8.37     0  02:36        2.24
  WS02006116           JUNCTION     0.86     2.21     8.25     0  02:36        2.20
  WS02006228           JUNCTION     1.23     3.03     9.68     0  02:16        3.03
  WS02006229           JUNCTION     1.25     3.23     9.93     0  02:27        3.22
  WS02006230           JUNCTION     1.14     2.65     9.39     0  02:02        2.65
  WS02006231           JUNCTION     0.84     2.24     9.36     0  01:32        2.22
  WS02006232           JUNCTION     0.91     2.18     9.22     0  01:32        2.18
  WS02006234           JUNCTION     0.78     1.96     9.12     0  01:32        1.96
  WS02006235           JUNCTION     0.78     2.00     9.16     0  01:32        2.00
  WS02006238           JUNCTION     0.80     2.12     9.26     0  01:32        1.96
  WS02006239           JUNCTION     0.72     2.03     9.24     0  01:32        1.79
  WS02006240           JUNCTION     0.66     2.10     9.39     0  01:32        1.65
  WS02006242           JUNCTION     0.68     1.55     8.82     0  01:32        1.55
  WS02006243           JUNCTION     0.57     1.48     8.90     0  01:32        1.38
  WS02006245           JUNCTION     0.54     1.56     9.04     0  01:31        1.32
  WS02006247           JUNCTION     0.54     1.47     8.97     0  01:31        1.25
  WS02006248           JUNCTION     0.48     1.10     8.69     0  00:01        1.10
  WS02006249           JUNCTION     0.50     1.09     8.69     0  00:01        1.09
  WS02006251           JUNCTION     0.64     2.21     9.88     0  02:04        2.18
  WS02006252           JUNCTION     0.41     1.50     9.74     0  00:00        1.50
  WS02006253           JUNCTION     0.77     3.22    10.86     0  02:36        3.22
  WS02006256           JUNCTION     1.04     2.35     9.28     0  00:00        2.35
  WS02006280           JUNCTION     0.44     1.75    10.02     0  02:27        1.74
  WS02006284           JUNCTION     0.69     1.96    10.36     0  02:27        1.95
  WS02006287           JUNCTION     0.42     1.76    10.71     0  02:27        1.74
  WSF200               JUNCTION     0.25     0.54     5.78     0  02:36        0.54
  YS02001580           JUNCTION     0.16     1.05     9.59     0  01:24        0.77
  YS02001583           JUNCTION     0.19     1.14     9.64     0  01:24        0.82
  YS02001586           JUNCTION     0.30     1.13     9.30     0  01:23        1.13
  YS02001590           JUNCTION     0.41     1.40     9.26     0  01:23        1.38
  YS02001593           JUNCTION     0.34     1.46     9.32     0  01:23        1.29
  YS02001596           JUNCTION     0.46     1.74     9.16     0  01:23        1.68
  YS02001600           JUNCTION     0.55     1.87     9.00     0  01:23        1.87
  YS02001601           JUNCTION     0.74     2.06     8.90     0  01:23        2.06
  YS02001602           JUNCTION     0.64     1.87     8.77     0  01:24        1.87
  YS02001605           JUNCTION     0.59     1.78     8.68     0  01:24        1.78
  YS02001607           JUNCTION     0.55     1.68     8.53     0  01:24        1.68
  YS02001610           JUNCTION     0.59     1.68     8.48     0  01:24        1.68
  YS02001613           JUNCTION     0.55     1.70     8.54     0  01:24        1.68
  YS02001616           JUNCTION     0.48     1.61     8.52     0  01:24        1.61
  YS02001619           JUNCTION     0.46     1.61     8.54     0  01:24        1.61
  YS02001622           JUNCTION     0.45     1.62     8.52     0  01:24        1.57
  YS02001625           JUNCTION     0.70     1.78     8.38     0  01:24        1.78
  YS02001629           JUNCTION     0.58     1.85     8.40     0  01:24        1.85
  YS02001633           JUNCTION     0.66     2.08     8.53     0  01:26        2.08
  YS02001641           JUNCTION     0.61     1.98     8.41     0  01:25        1.94
  YS02001644           JUNCTION     0.60     1.92     8.35     0  01:25        1.92
  YS02001647           JUNCTION     0.36     1.83     8.44     0  01:25        1.78
  YS02001649           JUNCTION     0.40     2.05     8.44     0  01:26        2.05
  YS02001652           JUNCTION     0.28     2.16     8.76     0  01:25        2.16
  YS02001655           JUNCTION     0.20     2.20     9.05     0  01:25        2.20
  YS02001658           JUNCTION     0.15     2.30     9.44     0  01:26        2.30
  YS02001661           JUNCTION     0.18     2.09     9.49     0  01:26        1.37
  YS02001664           JUNCTION     0.08     1.69     9.61     0  01:26        0.95
  YS02001745           JUNCTION     0.08     2.35     9.87     0  01:26        0.82
  YS02001748           JUNCTION     0.13     2.27     9.35     0  01:26        1.25
  YS02001751           JUNCTION     0.16     2.20     9.08     0  01:26        1.44
  YS02001754           JUNCTION     0.22     2.20     8.81     0  01:26        1.70
  YS02001757           JUNCTION     0.39     2.21     8.47     0  01:26        2.04
  YS02001759           JUNCTION     0.33     2.21     8.57     0  01:26        2.03
  YS02001762           JUNCTION     0.32     2.15     8.55     0  01:25        2.01
  YS02001765           JUNCTION     0.30     2.10     8.55     0  01:26        1.97
  YS02001767           JUNCTION     0.30     2.03     8.52     0  01:25        1.94
  YS02001770           JUNCTION     0.32     1.95     8.44     0  01:25        1.95
  YS02001774           JUNCTION     0.38     2.05     8.47     0  01:25        1.99
  YS02001779           JUNCTION     0.21     1.68     8.37     0  01:25        1.68
  YS02001783           JUNCTION     0.34     1.35     7.49     0  01:25        1.24
  YS02001784           JUNCTION     0.34     1.27     7.34     0  01:25        1.11
  YS02001786           JUNCTION     0.28     1.43     7.46     0  01:25        0.87
  YS02001788           JUNCTION     0.20     0.65     6.63     0  01:25        0.62
  YS02001790           JUNCTION     0.24     0.73     6.37     0  01:26        0.72
  YS02001791           JUNCTION     0.15     0.44     5.91     0  01:28        0.44
  YS02001793           JUNCTION     0.08     0.21     5.05     0  01:29        0.21
  YS02001882           JUNCTION     0.42     1.83     8.55     0  01:24        1.70
  YS02001884           JUNCTION     0.51     1.93     8.55     0  01:24        1.79
  YS02001887           JUNCTION     0.59     1.91     8.45     0  01:26        1.91
  YS02001890           JUNCTION     0.62     1.81     8.32     0  01:24        1.81
  YS02001895           JUNCTION     0.39     1.75     8.50     0  01:24        1.57
  YS02001898           JUNCTION     0.40     1.77     8.51     0  01:24        1.57
  YS02001901           JUNCTION     0.51     1.81     8.42     0  01:24        1.71
  YS02001904           JUNCTION     0.49     1.71     8.34     0  01:24        1.65
  YS02001907           JUNCTION     0.81     1.96     8.25     0  01:24        1.96
  YS02001910           JUNCTION     0.61     2.10     8.61     0  01:24        2.02
  YS02001915           JUNCTION     0.43     2.00     8.72     0  01:24        2.00
  YS02001918           JUNCTION     0.26     1.81     8.88     0  01:25        1.81
  YS02001920           JUNCTION     0.34     2.14     9.15     0  01:25        2.14
  YS02001923           JUNCTION     0.20     2.03     9.29     0  01:25        2.03
  YS02001926           JUNCTION     0.23     1.90     9.35     0  01:25        1.90
  YS02001929           JUNCTION     0.14     1.78     9.47     0  01:25        1.78
  YS02006553           JUNCTION     0.81     2.00     8.29     0  01:26        2.00
  YS02006556           JUNCTION     0.78     2.02     8.33     0  01:26        2.02
  YS02006558           JUNCTION     0.82     2.12     8.38     0  01:26        2.12
  YS02006561           JUNCTION     0.21     1.17     7.83     0  01:25        0.90
  YS02163301           JUNCTION     0.60     1.95     8.47     0  01:26        1.95
  YS02163601           JUNCTION     0.68     2.08     8.48     0  01:25        2.01
  YS02164001           JUNCTION     0.61     1.99     8.45     0  01:25        1.93
  YSB1154              JUNCTION     0.57     2.10    11.16     0  02:32        2.10
  YSB1171              JUNCTION     0.71     1.95    10.85     0  02:11        1.95
  YSB1174              JUNCTION     0.52     1.95    11.06     0  02:32        1.95
  YSB6556              JUNCTION     0.46     1.80    10.97     0  02:32        1.80
  CC-1                 OUTFALL      0.00     0.00     0.00     0  00:00        0.00
  CC-2                 OUTFALL      0.00     0.00     0.00     0  00:00        0.00
  JK-1                 OUTFALL      0.00     0.00     0.00     0  00:00        0.00
  JK-2                 OUTFALL      0.00     0.00     0.00     0  00:00        0.00
  WSC                  OUTFALL      0.31     0.53     1.20     0  02:39        0.53
  CC-storage           STORAGE      0.54     0.91     6.41     0  02:21        0.91
  JK-storage           STORAGE      1.16     4.20     5.00     0  02:14        3.96
  XR-storage           STORAGE      7.88     9.26     7.26     0  08:00        9.26
  
  
  *******************
  Node Inflow Summary
  *******************
  
  -------------------------------------------------------------------------------------------------
                                  Maximum  Maximum                  Lateral       Total        Flow
                                  Lateral    Total  Time of Max      Inflow      Inflow     Balance
                                   Inflow   Inflow   Occurrence      Volume      Volume       Error
  Node                 Type           LPS      LPS  days hr:min    10^6 ltr    10^6 ltr     Percent
  -------------------------------------------------------------------------------------------------
  HS02004478           JUNCTION      0.00  2306.33     0  02:32           0        11.2      -0.012
  HS02004479           JUNCTION      0.00   376.89     0  02:20           0        1.13       0.047
  HS02004480           JUNCTION      0.00  2014.42     0  02:15           0        8.24       0.016
  HS02004770           JUNCTION   2752.85  2814.01     0  02:37        4.35        4.62       0.055
  HS02004777           JUNCTION      0.03   673.39     0  02:11    0.000864        2.23       0.232
  HS02004785           JUNCTION      0.15   675.11     0  02:11     0.00432        2.23       0.013
  HS02004788           JUNCTION    995.41   995.41     0  02:37        1.64        3.86       0.011
  HS02004792           JUNCTION   3442.54  4377.37     0  02:37        5.66        9.52      -0.002
  HS02004799           JUNCTION    600.48  1742.58     0  02:37       0.917        7.62       0.038
  HS02004802           JUNCTION      0.00  1234.85     0  02:32           0        3.27       0.116
  HS02004807           JUNCTION    743.66  1940.20     0  02:37        1.12        3.72       0.109
  HS02004817           JUNCTION      0.60  1197.11     0  02:36      0.0173        2.66       0.625
  HS02004824           JUNCTION   1077.10  1678.14     0  02:37        1.99        3.12       0.013
  HS02004830           JUNCTION      0.15   608.80     0  02:36     0.00432        1.41       0.087
  HS02004837           JUNCTION    691.80   691.80     0  02:37        1.25        1.82       0.039
  HS02004842           JUNCTION      0.00   686.81     0  02:15           0        1.17       1.108
  HS02004848           JUNCTION   1030.26  1030.26     0  02:37        2.01        2.75       0.003
  HS02004852           JUNCTION      0.00   904.86     0  02:15           0        2.35      -0.003
  HS02004856           JUNCTION    304.44   942.47     0  02:15       0.463        2.81       0.057
  HS02004862           JUNCTION    467.04  1292.06     0  02:37       0.843        3.65       0.002
  HS02004870           JUNCTION    406.09  1271.13     0  02:41       0.616        4.09      -0.004
  HS02004876           JUNCTION    406.82  1522.25     0  02:41       0.638        4.72       0.007
  HS02004881           JUNCTION    218.00  1700.79     0  02:36       0.325        5.06       0.001
  HS02004901           JUNCTION    640.71   906.50     0  02:37       0.966        1.53       0.098
  WS02001211           JUNCTION      7.35   209.87     0  03:12       0.212        5.44       0.610
  WS02001212           JUNCTION      0.00   221.44     0  03:12           0        5.41       0.291
  WS02001213           JUNCTION      0.00   229.68     0  03:11           0        5.39       0.332
  WS02003059           JUNCTION      0.00   238.57     0  03:11           0        5.38       0.595
  WS02003060           JUNCTION     16.53  1586.64     0  02:38       0.476        14.9       0.098
  WS02003066           JUNCTION      0.00  1389.86     0  02:36           0         9.1       0.016
  WS02003067           JUNCTION      0.00  1389.02     0  02:36           0        9.11       0.049
  WS02003069           JUNCTION      0.32  1583.58     0  02:37     0.00922        14.9       0.104
  WS02003072           JUNCTION      0.00  1582.20     0  02:38           0        14.9       0.140
  WS02003073           JUNCTION      1.82  1584.35     0  02:38      0.0524        14.9       0.145
  WS02004138           JUNCTION      0.00   380.00     0  00:00           0        5.25       0.056
  WS02004139           JUNCTION      0.32   192.31     0  00:29     0.00924        5.26       0.508
  WS02004401           JUNCTION      0.00  1385.81     0  02:36           0        9.21       0.114
  WS02004402           JUNCTION      0.00  1385.89     0  02:36           0         9.2       0.119
  WS02004403           JUNCTION      0.00  1386.25     0  02:36           0        9.19       0.111
  WS02004404           JUNCTION      0.16  1386.31     0  02:36     0.00467        9.19       0.093
  WS02004405           JUNCTION      0.04  1386.44     0  02:36      0.0011        9.18       0.139
  WS02004406           JUNCTION      0.00  1386.67     0  02:36           0        9.17       0.233
  WS02004407           JUNCTION      0.00  1386.73     0  02:36           0        9.15       0.017
  WS02004409           JUNCTION      0.00  1386.49     0  02:36           0        9.14       0.037
  WS02004410           JUNCTION      0.00  1386.72     0  02:36           0        9.14       0.053
  WS02004411           JUNCTION      0.00  1387.12     0  02:36           0        9.14       0.068
  WS02004412           JUNCTION      0.00  1387.73     0  02:36           0        9.13       0.088
  WS02004413           JUNCTION      0.00  1388.66     0  02:36           0        9.12       0.153
  WS02006109           JUNCTION      1.23  1289.13     0  02:29      0.0354        8.97       0.110
  WS02006110           JUNCTION      0.00  1125.39     0  02:52           0        8.46       0.090
  WS02006111           JUNCTION      0.00  1125.79     0  02:52           0        8.45       0.011
  WS02006112           JUNCTION    522.64  1386.04     0  02:37       0.793        9.24       0.191
  WS02006113           JUNCTION      0.00  1125.54     0  02:52           0        8.46       0.023
  WS02006115           JUNCTION      0.00  1386.15     0  02:37           0        9.23       0.077
  WS02006116           JUNCTION      0.00  1385.71     0  02:36           0        9.22       0.058
  WS02006228           JUNCTION      0.00  1288.99     0  02:29           0        8.94       0.077
  WS02006229           JUNCTION      0.00  2305.29     0  02:29           0        12.4       0.073
  WS02006230           JUNCTION     10.28  1025.72     0  02:29       0.296        4.61       0.193
  WS02006231           JUNCTION      0.00   453.38     0  02:44           0        2.88      -0.111
  WS02006232           JUNCTION      0.00   453.48     0  02:52           0        2.87       0.224
  WS02006234           JUNCTION      0.00   453.31     0  02:44           0        2.85      -0.215
  WS02006235           JUNCTION      0.00   442.62     0  01:29           0        2.72       0.202
  WS02006238           JUNCTION      0.00   419.86     0  00:04           0        2.62      -0.056
  WS02006239           JUNCTION      0.00   443.06     0  01:32           0        2.58      -0.162
  WS02006240           JUNCTION      0.00   492.13     0  01:32           0        2.56      -0.086
  WS02006242           JUNCTION      0.00   581.73     0  00:03           0        2.55      -0.109
  WS02006243           JUNCTION      0.00   716.42     0  00:02           0        2.05      -0.086
  WS02006245           JUNCTION      0.00   794.88     0  00:02           0        2.07       0.688
  WS02006247           JUNCTION      0.00   839.94     0  00:01           0        2.07      -0.093
  WS02006248           JUNCTION      0.00   890.21     0  00:01           0         2.4      -0.122
  WS02006249           JUNCTION      0.00  1391.25     0  02:36           0        6.24       0.192
  WS02006251           JUNCTION      0.08  1757.95     0  02:36     0.00222        6.64      -0.137
  WS02006252           JUNCTION      0.00  2291.03     0  02:31           0        5.02      -1.105
  WS02006253           JUNCTION     55.97  1756.44     0  02:36      0.0784        5.22      -0.033
  WS02006256           JUNCTION      0.00  1500.00     0  00:01           0        1.45       8.554
  WS02006280           JUNCTION      0.00  2303.82     0  02:29           0        11.2      -0.004
  WS02006284           JUNCTION      0.10  2304.08     0  02:29     0.00275        11.2       0.004
  WS02006287           JUNCTION      0.00  2304.58     0  02:29           0        11.2       0.005
  WSF200               JUNCTION      0.00  1390.94     0  02:36           0         9.1       0.009
  YS02001580           JUNCTION      0.00   316.90     0  01:24           0     0.00506      -8.513
  YS02001583           JUNCTION      0.00   316.47     0  01:24           0      0.0154     -12.823
  YS02001586           JUNCTION    781.26   781.29     0  01:32        2.16        2.17       0.091
  YS02001590           JUNCTION      0.00   318.39     0  01:51           0        1.59      -0.069
  YS02001593           JUNCTION      0.00   318.09     0  01:51           0        1.59       0.023
  YS02001596           JUNCTION      0.00   318.04     0  02:03           0        1.59      -0.008
  YS02001600           JUNCTION      0.00   318.05     0  01:35           0        1.59       0.003
  YS02001601           JUNCTION   1459.46  1776.92     0  01:30        2.93        4.52       0.018
  YS02001602           JUNCTION      0.00   603.26     0  01:24           0        2.66       0.020
  YS02001605           JUNCTION      0.00   603.51     0  01:24           0        2.54       0.021
  YS02001607           JUNCTION      0.00   603.27     0  01:24           0        2.54       0.046
  YS02001610           JUNCTION      0.00   770.05     0  01:32           0        2.92       0.074
  YS02001613           JUNCTION      0.00   534.79     0  01:24           0        2.35       0.034
  YS02001616           JUNCTION      0.00   601.88     0  01:24           0        2.35      -0.021
  YS02001619           JUNCTION   1379.27  1379.27     0  01:31        3.46        5.43      -0.007
  YS02001622           JUNCTION      0.00   990.00     0  01:24           0        5.04      -0.007
  YS02001625           JUNCTION      0.00  1374.19     0  01:33           0        5.28       0.182
  YS02001629           JUNCTION      0.00   986.52     0  01:59           0        4.32      -0.004
  YS02001633           JUNCTION   1084.35  1316.82     0  01:56        2.15        6.15       0.060
  YS02001641           JUNCTION      0.00  1317.66     0  01:56           0        5.84       0.047
  YS02001644           JUNCTION    975.27  1929.07     0  01:25        1.87        7.69       0.042
  YS02001647           JUNCTION      0.00  1924.90     0  01:25           0        7.22       0.006
  YS02001649           JUNCTION      0.00  2123.82     0  01:25           0        8.93       0.005
  YS02001652           JUNCTION      0.00  1094.92     0  01:27           0        1.72      -0.185
  YS02001655           JUNCTION      0.15  1094.19     0  01:27     0.00443        1.72       0.068
  YS02001658           JUNCTION      0.00  1093.40     0  01:27           0        1.71      -0.001
  YS02001661           JUNCTION      0.00  1090.69     0  01:27           0        1.71       0.015
  YS02001664           JUNCTION    948.69   948.69     0  01:28        1.71        1.71      -0.035
  YS02001745           JUNCTION    633.19   661.27     0  01:26        1.03        1.03       0.101
  YS02001748           JUNCTION      0.04   966.12     0  01:26      0.0013        1.03      -0.345
  YS02001751           JUNCTION      0.01   869.63     0  01:25    0.000317        1.04       0.210
  YS02001754           JUNCTION      0.26   746.05     0  01:25     0.00749        1.05      -0.314
  YS02001757           JUNCTION      0.00  3625.88     0  01:27           0        13.3       0.013
  YS02001759           JUNCTION    870.92  1470.79     0  01:26        1.42        3.32       0.000
  YS02001762           JUNCTION      0.00   835.97     0  01:36           0         1.9      -0.002
  YS02001765           JUNCTION      0.00   834.80     0  01:36           0         1.9       0.015
  YS02001767           JUNCTION      0.54   834.10     0  01:36      0.0154         1.9      -0.037
  YS02001770           JUNCTION   1221.08  1221.08     0  01:28        2.16        2.21      -0.021
  YS02001774           JUNCTION      0.00   860.46     0  01:25           0        0.34       0.227
  YS02001779           JUNCTION      0.01   864.36     0  01:25    0.000144       0.296      -0.284
  YS02001783           JUNCTION      0.00  1169.59     0  01:26           0        4.78       0.005
  YS02001784           JUNCTION      1.06  1171.66     0  01:26      0.0305        4.81       0.012
  YS02001786           JUNCTION      0.06  1172.76     0  01:25     0.00162        4.82       0.010
  YS02001788           JUNCTION      0.07  1171.10     0  01:26     0.00204        4.82       0.006
  YS02001790           JUNCTION      0.15  1216.72     0  01:25     0.00446        4.82       0.008
  YS02001791           JUNCTION      0.00  1292.90     0  01:28           0        4.82      -0.015
  YS02001793           JUNCTION      0.00  1255.58     0  01:29           0        4.82       0.004
  YS02001882           JUNCTION      0.00   199.73     0  01:24           0      0.0126       4.401
  YS02001884           JUNCTION      0.00   275.86     0  01:24           0      0.0486       5.435
  YS02001887           JUNCTION    977.14   977.17     0  01:27        1.48        1.51       0.296
  YS02001890           JUNCTION      0.00   977.33     0  01:27           0        1.47       0.343
  YS02001895           JUNCTION      0.00   785.00     0  01:24           0        1.28       0.127
  YS02001898           JUNCTION      0.00   690.48     0  01:24           0        1.28      -0.062
  YS02001901           JUNCTION      0.00   522.54     0  01:25           0        1.28       0.267
  YS02001904           JUNCTION      0.00   523.42     0  01:25           0         1.3       0.218
  YS02001907           JUNCTION      0.00  2162.82     0  01:28           0        4.54       0.398
  YS02001910           JUNCTION      0.00  1561.43     0  01:30           0        3.23       0.220
  YS02001915           JUNCTION   1056.33  1561.54     0  01:28        2.06        3.29       0.028
  YS02001918           JUNCTION      0.00  1126.63     0  01:25           0        1.27       0.033
  YS02001920           JUNCTION      2.87  1074.56     0  01:25      0.0827        1.23      -0.015
  YS02001923           JUNCTION      0.04  1525.56     0  01:25     0.00109        1.13      -0.176
  YS02001926           JUNCTION      0.05  1617.86     0  01:25      0.0015         1.1       0.047
  YS02001929           JUNCTION    503.04  1041.91     0  01:25        1.08        1.09      -0.171
  YS02006553           JUNCTION      0.00   790.37     0  01:54           0        2.71       0.433
  YS02006556           JUNCTION      0.00   790.27     0  01:54           0        2.73       0.300
  YS02006558           JUNCTION   1255.03  1255.03     0  01:28        2.17        4.85       0.072
  YS02006561           JUNCTION      0.00  1249.78     0  01:25           0        4.78      -0.003
  YS02163301           JUNCTION      0.00   987.87     0  01:59           0        4.31       0.034
  YS02163601           JUNCTION      0.11  1317.01     0  01:56     0.00317        5.83       0.086
  YS02164001           JUNCTION      0.00  1317.18     0  01:56           0        5.83       0.046
  YSB1154              JUNCTION    697.26   697.26     0  02:37        1.09         1.1       0.122
  YSB1171              JUNCTION      0.00  1460.54     0  02:36           0        2.17       0.267
  YSB1174              JUNCTION    582.80   582.80     0  02:36       0.838       0.838       0.136
  YSB6556              JUNCTION      0.00   697.22     0  02:37           0         1.1       0.087
  CC-1                 OUTFALL       0.00  3415.00     0  00:01           0        6.34       0.000
  CC-2                 OUTFALL       0.00  3415.00     0  00:01           0        3.12       0.000
  JK-1                 OUTFALL       0.00  5000.00     0  01:26           0        1.67       0.000
  JK-2                 OUTFALL       0.00  5000.00     0  01:24           0        1.84       0.000
  WSC                  OUTFALL       0.00  1585.31     0  02:39           0        14.9       0.000
  CC-storage           STORAGE       0.00  3626.48     0  01:27           0        15.5      -0.130
  JK-storage           STORAGE       0.00  1255.99     0  01:29           0        4.97      -0.499
  XR-storage           STORAGE     200.00   200.00     0  00:00        5.76        6.36       0.001
  
  
  **********************
  Node Surcharge Summary
  **********************
  
  Surcharging occurs when water rises above the top of the highest conduit.
  ---------------------------------------------------------------------
                                               Max. Height   Min. Depth
                                   Hours       Above Crown    Below Rim
  Node                 Type      Surcharged         Meters       Meters
  ---------------------------------------------------------------------
  HS02004478           JUNCTION        0.74          0.685        0.255
  HS02004479           JUNCTION        0.91          0.910        0.140
  HS02004480           JUNCTION        0.95          0.971        0.129
  HS02004770           JUNCTION        0.83          0.720        0.000
  HS02004777           JUNCTION        0.84          0.780        0.000
  HS02004785           JUNCTION        0.78          0.702        0.088
  HS02004788           JUNCTION        0.77          0.720        0.000
  HS02004792           JUNCTION        0.91          0.900        0.000
  HS02004799           JUNCTION        1.09          1.060        0.000
  HS02004802           JUNCTION        0.97          1.120        0.090
  HS02004807           JUNCTION        0.93          1.220        0.000
  HS02004817           JUNCTION        1.60          1.713        0.027
  HS02004824           JUNCTION        0.76          1.310        0.000
  HS02004830           JUNCTION        0.73          1.330        0.000
  HS02004837           JUNCTION        0.67          1.299        0.041
  HS02004842           JUNCTION        0.85          1.520        0.000
  HS02004848           JUNCTION        0.62          1.341        0.029
  HS02004852           JUNCTION        0.65          1.420        0.000
  HS02004856           JUNCTION        0.62          1.300        0.000
  HS02004862           JUNCTION        0.67          1.300        0.000
  HS02004870           JUNCTION        0.66          1.400        0.000
  HS02004876           JUNCTION        0.75          1.560        0.000
  HS02004881           JUNCTION        0.69          1.277        0.173
  HS02004901           JUNCTION        0.84          0.720        0.000
  WS02004401           JUNCTION        1.79          1.096        0.564
  WS02004402           JUNCTION        1.82          1.026        0.714
  WS02004403           JUNCTION        1.82          0.939        1.091
  WS02004404           JUNCTION        1.89          0.936        1.844
  WS02004405           JUNCTION        1.88          0.880        1.920
  WS02004406           JUNCTION        1.86          0.752        1.698
  WS02004407           JUNCTION        0.09          0.079        2.261
  WS02004409           JUNCTION        1.43          0.499        1.861
  WS02004410           JUNCTION        1.30          0.378        2.162
  WS02004411           JUNCTION        1.22          0.283        2.247
  WS02004412           JUNCTION        1.12          0.156        2.154
  WS02004413           JUNCTION        1.64          0.178        2.022
  WS02006109           JUNCTION        2.12          1.820        0.000
  WS02006110           JUNCTION        1.99          1.571        0.279
  WS02006111           JUNCTION        1.62          1.174        0.696
  WS02006112           JUNCTION        2.03          1.677        0.003
  WS02006113           JUNCTION        1.63          1.187        0.743
  WS02006115           JUNCTION        1.74          1.225        1.025
  WS02006116           JUNCTION        1.75          1.153        1.137
  WS02006228           JUNCTION        2.12          2.200        0.000
  WS02006229           JUNCTION        1.26          1.051        0.019
  WS02006230           JUNCTION        1.85          1.570        0.000
  WS02006231           JUNCTION        1.86          1.530        0.000
  WS02006232           JUNCTION        1.98          1.480        0.000
  WS02006234           JUNCTION        1.85          1.240        0.000
  WS02006235           JUNCTION        1.87          1.290        0.000
  WS02006238           JUNCTION        1.89          1.398        0.032
  WS02006239           JUNCTION        1.83          1.290        0.000
  WS02006240           JUNCTION        1.82          1.390        0.000
  WS02006242           JUNCTION        1.85          0.820        0.000
  WS02006243           JUNCTION        1.81          0.770        0.000
  WS02006245           JUNCTION        1.78          0.850        0.000
  WS02006247           JUNCTION        1.81          0.760        0.000
  WS02006248           JUNCTION        1.76          0.380        0.000
  WS02006249           JUNCTION        1.78          0.390        0.000
  WS02006251           JUNCTION        1.53          1.180        0.000
  WS02006252           JUNCTION        1.73          1.100        0.000
  WS02006253           JUNCTION        1.58          2.177        0.303
  WS02006256           JUNCTION        6.31          2.050        0.000
  WS02006280           JUNCTION        1.10          0.703        0.077
  WS02006284           JUNCTION        1.00          0.683        0.117
  WS02006287           JUNCTION        0.86          0.758        0.132
  YS02001580           JUNCTION        0.82          0.450        0.000
  YS02001583           JUNCTION        0.83          0.500        0.000
  YS02001586           JUNCTION        0.94          0.510        0.000
  YS02001590           JUNCTION        1.02          0.750        0.000
  YS02001593           JUNCTION        1.02          0.840        0.000
  YS02001596           JUNCTION        1.14          1.014        0.056
  YS02001600           JUNCTION        1.34          1.190        0.000
  YS02001601           JUNCTION        1.75          1.440        0.000
  YS02001602           JUNCTION        1.67          1.270        0.000
  YS02001605           JUNCTION        1.61          1.180        0.000
  YS02001607           JUNCTION        0.92          0.680        0.000
  YS02001610           JUNCTION        0.96          0.680        0.000
  YS02001613           JUNCTION        0.91          0.700        0.000
  YS02001616           JUNCTION        0.86          0.610        0.000
  YS02001619           JUNCTION        0.84          0.610        0.000
  YS02001622           JUNCTION        0.83          0.620        0.000
  YS02001625           JUNCTION        1.07          0.780        0.000
  YS02001629           JUNCTION        0.67          0.470        0.000
  YS02001633           JUNCTION        1.07          1.060        0.000
  YS02001641           JUNCTION        0.93          0.976        0.124
  YS02001644           JUNCTION        0.84          0.920        0.000
  YS02001647           JUNCTION        0.51          0.832        0.068
  YS02001649           JUNCTION        0.54          1.050        0.000
  YS02001652           JUNCTION        0.42          1.130        0.000
  YS02001655           JUNCTION        0.32          1.200        0.000
  YS02001658           JUNCTION        0.22          1.300        0.000
  YS02001661           JUNCTION        0.04          1.017        0.373
  YS02001664           JUNCTION        0.01          0.688        0.622
  YS02001745           JUNCTION        0.01          1.350        0.000
  YS02001748           JUNCTION        0.12          1.190        0.000
  YS02001751           JUNCTION        0.24          1.200        0.000
  YS02001754           JUNCTION        0.32          1.150        0.000
  YS02001757           JUNCTION        0.52          1.210        0.000
  YS02001759           JUNCTION        0.47          1.208        0.002
  YS02001762           JUNCTION        0.45          1.150        0.000
  YS02001765           JUNCTION        0.43          1.100        0.000
  YS02001767           JUNCTION        0.41          1.030        0.000
  YS02001770           JUNCTION        0.40          0.920        0.000
  YS02001774           JUNCTION        0.46          1.050        0.000
  YS02001779           JUNCTION        0.34          0.680        0.000
  YS02001783           JUNCTION        0.69          0.553        1.047
  YS02001784           JUNCTION        0.67          0.469        1.021
  YS02001786           JUNCTION        0.55          0.627        0.803
  YS02001882           JUNCTION        0.63          0.830        0.000
  YS02001884           JUNCTION        0.64          0.870        0.000
  YS02001887           JUNCTION        0.68          0.862        0.088
  YS02001890           JUNCTION        0.70          0.760        0.000
  YS02001895           JUNCTION        0.62          0.750        0.000
  YS02001898           JUNCTION        0.61          0.740        0.000
  YS02001901           JUNCTION        0.67          0.814        0.056
  YS02001904           JUNCTION        0.66          0.709        0.141
  YS02001907           JUNCTION        0.90          0.950        0.000
  YS02001910           JUNCTION        0.73          1.100        0.000
  YS02001915           JUNCTION        0.63          1.000        0.000
  YS02001918           JUNCTION        0.54          0.810        0.000
  YS02001920           JUNCTION        0.55          1.140        0.000
  YS02001923           JUNCTION        0.17          0.820        0.000
  YS02001926           JUNCTION        0.20          0.900        0.000
  YS02001929           JUNCTION        0.01          0.780        0.000
  YS02006553           JUNCTION        0.93          1.005        0.185
  YS02006556           JUNCTION        0.81          0.979        0.371
  YS02006558           JUNCTION        0.80          1.016        0.384
  YS02006561           JUNCTION        0.50          0.369        0.781
  YS02163301           JUNCTION        1.05          0.949        0.081
  YS02163601           JUNCTION        1.11          1.080        0.000
  YS02164001           JUNCTION        0.95          0.995        0.105
  YSB1154              JUNCTION        1.24          1.400        0.000
  YSB1171              JUNCTION        1.24          1.100        0.000
  YSB1174              JUNCTION        1.14          1.250        0.000
  YSB6556              JUNCTION        1.04          1.100        0.000
  
  
  *********************
  Node Flooding Summary
  *********************
  
  Flooding refers to all water that overflows a node, whether it ponds or not.
  --------------------------------------------------------------------------
                                                             Total   Maximum
                                 Maximum   Time of Max       Flood    Ponded
                        Hours       Rate    Occurrence      Volume     Depth
  Node                 Flooded       LPS   days hr:min    10^6 ltr    Meters
  --------------------------------------------------------------------------
  HS02004770              0.63   2546.92      0  02:37       1.824     0.000
  HS02004777              0.01      0.22      0  02:27       0.000     0.000
  HS02004788              0.01      1.13      0  02:32       0.000     0.000
  HS02004792              0.59   3234.87      0  02:37       2.816     0.000
  HS02004799              0.36    437.52      0  02:37       0.261     0.000
  HS02004807              0.25    707.92      0  02:37       0.393     0.000
  HS02004824              0.19    481.61      0  02:37       0.185     0.000
  HS02004830              0.01     18.82      0  02:15       0.000     0.000
  HS02004842              0.18    603.32      0  02:37       0.202     0.000
  HS02004852              0.01    298.55      0  02:15       0.000     0.000
  HS02004856              0.01      0.74      0  02:32       0.000     0.000
  HS02004862              0.17    623.21      0  02:37       0.182     0.000
  HS02004870              0.01     61.88      0  02:15       0.000     0.000
  HS02004876              0.01      0.58      0  02:32       0.000     0.000
  HS02004901              0.71    906.45      0  02:37       1.265     0.000
  WS02006109              0.64    425.58      0  02:36       0.493     0.000
  WS02006228              0.01      0.64      0  02:16       0.000     0.000
  WS02006230              1.01    572.94      0  02:32       1.468     0.000
  WS02006231              0.01     30.88      0  01:32       0.000     0.000
  WS02006232              0.21     28.49      0  01:32       0.000     0.000
  WS02006234              1.08    233.60      0  01:32       0.210     0.000
  WS02006235              0.01    357.38      0  01:32       0.001     0.000
  WS02006239              0.01    251.72      0  01:32       0.000     0.000
  WS02006240              0.01    260.44      0  01:32       0.000     0.000
  WS02006242              1.29    314.16      0  01:32       0.502     0.000
  WS02006243              0.01    422.68      0  01:32       0.001     0.000
  WS02006245              0.01    480.02      0  01:31       0.001     0.000
  WS02006247              0.01    284.77      0  01:31       0.000     0.000
  WS02006248              1.58    339.27      0  02:32       1.619     0.000
  WS02006249              1.68   1330.27      0  02:36       5.110     0.000
  WS02006251              0.01    371.39      0  03:08       0.002     0.000
  WS02006252              0.97   2290.66      0  02:31       3.647     0.000
  WS02006256              0.31   1494.17      0  01:58       1.201     0.000
  YS02001580              0.01    305.06      0  01:24       0.002     0.000
  YS02001583              0.01    247.85      0  01:24       0.001     0.000
  YS02001586              0.66    463.89      0  01:32       0.571     0.000
  YS02001590              0.01    199.03      0  01:23       0.001     0.000
  YS02001593              0.01     67.42      0  01:23       0.000     0.000
  YS02001600              0.01     14.42      0  01:23       0.000     0.000
  YS02001601              0.83   1379.13      0  01:30       1.858     0.000
  YS02001602              0.56     62.04      0  01:44       0.119     0.000
  YS02001605              0.01     12.44      0  01:24       0.000     0.000
  YS02001607              0.01    329.68      0  01:24       0.002     0.000
  YS02001610              0.52    769.78      0  01:32       0.951     0.000
  YS02001613              0.01    284.92      0  01:24       0.001     0.000
  YS02001616              0.01    474.81      0  01:24       0.005     0.000
  YS02001619              0.01    395.77      0  01:24       0.001     0.000
  YS02001622              0.01    355.21      0  01:24       0.001     0.000
  YS02001625              0.44   1374.06      0  01:33       1.270     0.000
  YS02001629              0.15    326.33      0  01:27       0.081     0.000
  YS02001644              0.20   1159.33      0  01:27       0.462     0.000
  YS02001649              0.01    198.72      0  01:26       0.004     0.000
  YS02001652              0.01    282.27      0  01:25       0.000     0.000
  YS02001655              0.01    363.05      0  01:25       0.001     0.000
  YS02001658              0.01     21.14      0  01:26       0.000     0.000
  YS02001745              0.01    307.31      0  01:26       0.000     0.000
  YS02001748              0.01    157.27      0  01:26       0.001     0.000
  YS02001751              0.01    416.00      0  01:26       0.002     0.000
  YS02001754              0.01     58.83      0  01:26       0.000     0.000
  YS02001757              0.01     41.27      0  01:26       0.000     0.000
  YS02001762              0.01     31.35      0  01:25       0.000     0.000
  YS02001765              0.01      7.61      0  01:26       0.000     0.000
  YS02001767              0.01    239.84      0  01:25       0.001     0.000
  YS02001770              0.01    168.73      0  01:25       0.002     0.000
  YS02001774              0.01    435.13      0  01:25       0.001     0.000
  YS02001779              0.18    829.80      0  01:25       0.277     0.000
  YS02001882              0.01     42.81      0  01:24       0.000     0.000
  YS02001884              0.01     68.88      0  01:24       0.000     0.000
  YS02001890              0.21    459.69      0  01:27       0.189     0.000
  YS02001895              0.01    207.19      0  01:24       0.000     0.000
  YS02001898              0.01    554.56      0  01:24       0.003     0.000
  YS02001907              0.47   2162.72      0  01:28       1.813     0.000
  YS02001910              0.01     35.71      0  01:24       0.000     0.000
  YS02001915              0.01    424.16      0  01:24       0.001     0.000
  YS02001918              0.01    250.27      0  01:26       0.006     0.000
  YS02001920              0.01    432.27      0  01:25       0.001     0.000
  YS02001923              0.01    910.12      0  01:25       0.002     0.000
  YS02001926              0.01    641.34      0  01:25       0.002     0.000
  YS02001929              0.01    945.62      0  01:25       0.009     0.000
  YS02163601              0.01      3.87      0  01:25       0.000     0.000
  YSB1154                 0.01      0.81      0  02:36       0.000     0.000
  YSB1171                 0.48   1460.36      0  02:36       1.280     0.000
  YSB1174                 0.01      0.29      0  02:32       0.000     0.000
  YSB6556                 0.05     57.33      0  02:37       0.006     0.000
  
  
  **********************
  Storage Volume Summary
  **********************
  
  --------------------------------------------------------------------------------------------------
                         Average     Avg  Evap Exfil       Maximum     Max    Time of Max    Maximum
                          Volume    Pcnt  Pcnt  Pcnt        Volume    Pcnt     Occurrence    Outflow
  Storage Unit           1000 m3    Full  Loss  Loss       1000 m3    Full    days hr:min        LPS
  --------------------------------------------------------------------------------------------------
  CC-storage               1.505      23     0     0         2.526      39       0  02:21    8842.89
  JK-storage               0.058      20     0     0         0.211      72       0  02:14   11500.00
  XR-storage               0.946      66     0     0         1.111      77       0  08:00     380.00
  
  
  ***********************
  Outfall Loading Summary
  ***********************
  
  -----------------------------------------------------------
                         Flow       Avg       Max       Total
                         Freq      Flow      Flow      Volume
  Outfall Node           Pcnt       LPS       LPS    10^6 ltr
  -----------------------------------------------------------
  CC-1                  10.32   3348.18   3415.00       6.345
  CC-2                   5.63   3292.47   3415.00       3.119
  JK-1                   2.71   3965.52   5000.00       1.668
  JK-2                   2.35   4666.67   5000.00       1.839
  WSC                   99.94    701.37   1585.31      14.908
  -----------------------------------------------------------
  System                24.19  15974.21   1585.31      27.880
  
  
  ********************
  Link Flow Summary
  ********************
  
  -----------------------------------------------------------------------------
                                 Maximum  Time of Max   Maximum    Max/    Max/
                                  |Flow|   Occurrence   |Veloc|    Full    Full
  Link                 Type          LPS  days hr:min     m/sec    Flow   Depth
  -----------------------------------------------------------------------------
  1                    CONDUIT   1585.31     0  02:39      3.75    0.55    0.53
  HS02004478WS02006287 CONDUIT   2304.58     0  02:29      2.59    0.65    1.00
  HS02004479HS02004480 CONDUIT    377.67     0  02:20      0.54    0.36    1.00
  HS02004480HS02004478 CONDUIT   2013.68     0  02:15      2.88    8.48    1.00
  HS02004770HS02004777 CONDUIT    673.36     0  02:11      0.96    1.23    1.00
  HS02004777HS02004785 CONDUIT    674.96     0  02:11      1.00    0.83    1.00
  HS02004785HS02004788 CONDUIT    677.18     0  02:11      1.35    5.11    1.00
  HS02004788HS02004792 CONDUIT    957.35     0  02:36      1.46    0.63    1.00
  HS02004792HS02004799 CONDUIT   1565.52     0  02:13      2.24    0.96    1.00
  HS02004799HS02004480 CONDUIT   1701.29     0  02:15      2.43    2.15    1.00
  HS02004802HS02004478 CONDUIT   1234.44     0  02:32      1.76    1.09    1.00
  HS02004807HS02004802 CONDUIT   1234.85     0  02:32      1.76    2.36    1.00
  HS02004817HS02004807 CONDUIT   1197.11     0  02:34      1.71    0.71    1.00
  HS02004817HS02004824 CONDUIT   1196.51     0  02:36      1.71    0.54    1.00
  HS02004824HS02004830 CONDUIT    609.51     0  02:36      0.87    0.80    1.00
  HS02004830HS02004837 CONDUIT    608.65     0  02:36      0.87    0.61    1.00
  HS02004837HS02004842 CONDUIT    686.81     0  02:15      0.98    0.41    1.00
  HS02004842HS02004848 CONDUIT    687.25     0  02:15      1.02    0.40    1.00
  HS02004848HS02004852 CONDUIT    904.86     0  02:15      1.44    1.02    1.00
  HS02004852HS02004856 CONDUIT    869.92     0  02:15      1.37    0.99    1.00
  HS02004856HS02004862 CONDUIT    905.40     0  02:15      1.60    0.90    1.00
  HS02004862HS02004870 CONDUIT   1074.31     0  02:42      1.80    1.16    1.00
  HS02004870HS02004876 CONDUIT   1271.21     0  02:41      1.82    0.84    1.00
  HS02004876HS02004881 CONDUIT   1519.93     0  02:41      2.72   16.17    1.00
  HS02004881HS02006253 CONDUIT   1700.47     0  02:36      2.60    0.33    1.00
  HS02004901HS02004770 CONDUIT    265.79     0  02:50      0.38    1.00    1.00
  WS02001211WS02001212 CONDUIT    221.44     0  03:12      0.54    0.17    0.71
  WS02001212WS02001213 CONDUIT    229.68     0  03:11      1.04    0.35    0.58
  WS02001213WS02003059 CONDUIT    238.57     0  03:11      0.47    0.39    0.92
  WS02003059WS02003060 CONDUIT    248.65     0  03:10      0.67    0.16    0.84
  WS02003060WS02003069 CONDUIT   1583.26     0  02:37      2.11    0.62    0.63
  WS02003066WSF200     CONDUIT   1390.94     0  02:36      3.28    0.23    0.40
  WS02003067WS02003066 CONDUIT   1389.86     0  02:36      2.08    0.45    0.57
  WS02003069WS02003072 CONDUIT   1582.20     0  02:38      1.93    0.76    0.68
  WS02003072WS02003073 CONDUIT   1582.53     0  02:38      2.09    3.42    0.63
  WS02004138WS02004139 CONDUIT    191.99     0  00:29      2.16    0.04    0.43
  WS02004139WS02001211 CONDUIT    202.53     0  03:12      0.54    0.26    0.62
  WS02004401WS02004402 CONDUIT   1385.89     0  02:36      1.76    1.66    1.00
  WS02004402WS02004403 CONDUIT   1386.25     0  02:36      1.77    1.99    1.00
  WS02004403WS02004404 CONDUIT   1386.15     0  02:36      1.76    1.00    1.00
  WS02004404WS02004405 CONDUIT   1386.40     0  02:36      1.77   13.58    1.00
  WS02004405WS02004406 CONDUIT   1386.67     0  02:36      1.77    2.74    1.00
  WS02004406WS02004407 CONDUIT   1386.73     0  02:36      1.77    0.62    1.00
  WS02004407WS02004409 CONDUIT   1386.49     0  02:36      1.85    0.49    1.00
  WS02004409WS02004410 CONDUIT   1386.72     0  02:36      1.77    1.79    1.00
  WS02004410WS02004411 CONDUIT   1387.12     0  02:36      1.77    1.89    1.00
  WS02004411WS02004412 CONDUIT   1387.73     0  02:36      1.77    1.97    1.00
  WS02004412WS02004413 CONDUIT   1388.66     0  02:36      1.77    0.93    1.00
  WS02004413WS02003067 CONDUIT   1389.02     0  02:36      2.12    0.59    0.78
  WS02006109WS02006110 CONDUIT   1125.39     0  02:52      2.24    2.16    1.00
  WS02006110WS02006113 CONDUIT   1125.54     0  02:52      2.24    1.02    1.00
  WS02006111WS02006112 CONDUIT   1125.72     0  02:52      2.24    0.54    1.00
  WS02006112WS02006115 CONDUIT   1386.15     0  02:37      1.76    0.82    1.00
  WS02006113WS02006111 CONDUIT   1125.79     0  02:52      2.65    1.35    1.00
  WS02006115WS02006116 CONDUIT   1385.71     0  02:36      1.76    1.78    1.00
  WS02006116WS02004401 CONDUIT   1385.81     0  02:36      1.76    1.91    1.00
  WS02006228WS02006109 CONDUIT   1287.90     0  02:29      2.56    5.63    1.00
  WS02006229WS02006228 CONDUIT   1288.99     0  02:29      2.56    4.27    1.00
  WS02006230WS02006229 CONDUIT   1015.44     0  02:29      2.64   22.60    1.00
  WS02006231WS02006230 CONDUIT    453.38     0  02:44      1.18    6.88    1.00
  WS02006232WS02006231 CONDUIT    453.48     0  02:52      1.18    0.95    1.00
  WS02006234WS02006232 CONDUIT    453.31     0  02:44      1.42    0.92    1.00
  WS02006235WS02006234 CONDUIT    417.76     0  02:15      1.35    4.41    1.00
  WS02006238WS02006235 CONDUIT    415.44     0  02:15      1.46    0.93    1.00
  WS02006239WS02006238 CONDUIT    419.86     0  00:04      1.38    1.34    1.00
  WS02006240WS02006239 CONDUIT    443.06     0  01:32      1.45    1.39    1.00
  WS02006242WS02006240 CONDUIT    492.13     0  01:32      1.42    1.95    1.00
  WS02006243WS02006242 CONDUIT    581.73     0  00:03      1.70    1.24    1.00
  WS02006245WS02006243 CONDUIT    716.42     0  00:02      1.99    2.12    1.00
  WS02006247WS02006245 CONDUIT    794.88     0  00:02      2.15    6.30    1.00
  WS02006248WS02006247 CONDUIT    839.94     0  00:01      2.21    1.83    1.00
  WS02006249WS02006248 CONDUIT    890.21     0  00:01      2.32    4.88    1.00
  WS02006251WS02006249 CONDUIT   1391.25     0  02:36      3.62    4.01    1.00
  WS02006252WS02006251 CONDUIT   1154.68     0  01:31    >50.00    4.24    1.00
  WS02006253WS02006251 CONDUIT   1757.87     0  02:36      4.57    5.27    1.00
  WS02006256WS02006235 CONDUIT    288.93     0  00:00      4.23    3.06    1.00
  WS02006280WS02006229 CONDUIT   2305.29     0  02:29      4.13    0.49    1.00
  WS02006284WS02006280 CONDUIT   2303.82     0  02:29      3.01    0.96    1.00
  WS02006287WS02006284 CONDUIT   2303.99     0  02:29      2.93    1.07    1.00
  WSF200WS02003060     CONDUIT   1392.89     0  02:37      2.33    0.31    0.52
  YS02001580YS02001583 CONDUIT    316.90     0  01:24      1.25    1.23    1.00
  YS02001583YS02001586 CONDUIT    316.47     0  01:24      1.39    0.48    1.00
  YS02001586YS02001590 CONDUIT    318.39     0  01:51      1.36    0.56    1.00
  YS02001590YS02001593 CONDUIT    318.09     0  01:51      1.13    2.00    1.00
  YS02001593YS02001596 CONDUIT    318.04     0  02:03      1.75    0.50    1.00
  YS02001596YS02001600 CONDUIT    318.05     0  01:35      1.21    0.62    1.00
  YS02001600YS02001601 CONDUIT    318.07     0  01:44      1.12    0.55    1.00
  YS02001601YS02001602 CONDUIT    603.26     0  01:24      2.13    2.18    1.00
  YS02001602YS02001605 CONDUIT    603.51     0  01:24      2.13   12.77    1.00
  YS02001605YS02001607 CONDUIT    603.27     0  01:24      2.13    3.31    1.00
  YS02001607YS02001610 CONDUIT    577.63     0  01:24      0.82    0.55    1.00
  YS02001610YS02001613 CONDUIT    534.79     0  01:24      0.77    0.62    1.00
  YS02001613YS02001616 CONDUIT    513.13     0  02:13      0.74    0.44    1.00
  YS02001616YS02001619 CONDUIT    513.16     0  02:13      0.67    0.89    1.00
  YS02001619YS02001622 CONDUIT    990.00     0  01:24      1.58    1.46    1.00
  YS02001622YS02001625 CONDUIT    986.44     0  01:58      1.26    0.53    1.00
  YS02001625YS02001629 CONDUIT    986.52     0  01:59      1.26    0.47    1.00
  YS02001629YS02163301 CONDUIT    987.87     0  01:59      1.26    1.22    1.00
  YS02001633YS02163601 CONDUIT   1316.90     0  01:56      1.68    1.38    1.00
  YS02001641YS02001644 CONDUIT   1317.27     0  01:56      1.68    4.26    1.00
  YS02001644YS02001647 CONDUIT   1924.90     0  01:25      2.45    1.13    1.00
  YS02001647YS02001649 CONDUIT   1928.42     0  01:25      2.46    1.02    1.00
  YS02001649YS02001757 CONDUIT   2123.97     0  01:25      2.70    1.29    1.00
  YS02001652YS02001649 CONDUIT   1095.80     0  01:27      1.40    0.54    1.00
  YS02001655YS02001652 CONDUIT   1094.92     0  01:27      1.90    0.53    1.00
  YS02001658YS02001655 CONDUIT   1094.04     0  01:27      2.26    0.46    1.00
  YS02001661YS02001658 CONDUIT   1093.40     0  01:27      2.66    0.43    1.00
  YS02001664YS02001661 CONDUIT   1090.69     0  01:27      2.71    0.34    1.00
  YS02001745YS02001748 CONDUIT    710.03     0  01:26      2.63    0.27    1.00
  YS02001748YS02001751 CONDUIT    710.65     0  01:26      2.10    0.36    1.00
  YS02001751YS02001754 CONDUIT    711.58     0  01:26      1.90    0.34    1.00
  YS02001754YS02001757 CONDUIT    713.81     0  01:26      0.91    0.29    1.00
  YS02001757CaochengTiaoxuchi CONDUIT   3626.48     0  01:27      5.60    1.57    0.86
  YS02001759YS02001757 CONDUIT   1480.67     0  01:26      1.89    1.05    1.00
  YS02001762YS02001759 CONDUIT    835.73     0  01:36      1.06    0.96    1.00
  YS02001765YS02001762 CONDUIT    835.97     0  01:36      1.06    0.78    1.00
  YS02001767YS02001765 CONDUIT    834.80     0  01:36      1.06    1.05    1.00
  YS02001770YS02001767 CONDUIT    833.56     0  01:36      1.13    3.30    1.00
  YS02001774YS02001770 CONDUIT    860.46     0  01:25      1.10    0.55    1.00
  YS02001779YS02001774 CONDUIT    864.35     0  01:25      1.10    0.44    1.00
  YS02001783YS02001784 CONDUIT   1170.60     0  01:26      2.33    1.61    1.00
  YS02001784YS02001785 CONDUIT   1172.71     0  01:25      2.34    2.73    1.00
  YS02001786YS02001788 CONDUIT   1171.02     0  01:26      2.53    2.26    0.91
  YS02001788YS02001790 CONDUIT   1216.57     0  01:25      2.77    0.90    0.84
  YS02001790YS02001791 CONDUIT   1292.90     0  01:28      3.43    1.41    0.71
  YS02001791YS02001793 CONDUIT   1255.58     0  01:29      6.81    0.54    0.41
  YS02001793JiankangQianchi CONDUIT   1255.99     0  01:29      2.85    0.10    0.61
  YS02001882YS02001884 CONDUIT    199.73     0  01:24      0.26    0.23    1.00
  YS02001884YS02001887 CONDUIT    275.86     0  01:24      0.35    0.37    1.00
  YS02001887YS02001890 CONDUIT    977.33     0  01:27      1.24    1.67    1.00
  YS02001890YS02001895 CONDUIT    785.00     0  01:24      1.00    0.37    1.00
  YS02001895YS02001898 CONDUIT    690.48     0  01:24      0.88    1.20    1.00
  YS02001898YS02001901 CONDUIT    522.54     0  01:25      0.67    0.34    1.00
  YS02001901YS02001904 CONDUIT    523.42     0  01:25      0.67    0.81    1.00
  YS02001904YS02001907 CONDUIT    523.67     0  01:25      0.67    0.18    1.00
  YS02001907YS02006553 CONDUIT    790.37     0  01:54      0.88    0.93    1.00
  YS02001910YS02001907 CONDUIT   1561.82     0  01:28      1.99    0.88    1.00
  YS02001915YS02001910 CONDUIT   1561.43     0  01:30      1.99    0.78    1.00
  YS02001918YS02001915 CONDUIT   1126.63     0  01:25      1.43    0.62    1.00
  YS02001920YS02001918 CONDUIT   1071.69     0  01:25      1.37    1.04    1.00
  YS02001923YS02001920 CONDUIT   1090.23     0  01:25      1.46    0.49    1.00
  YS02001926YS02001923 CONDUIT   1263.93     0  01:25      1.76    1.80    1.00
  YS02001929YS02001926 CONDUIT    673.78     0  01:25      1.39    0.32    1.00
  YS02006553YS02006556 CONDUIT    790.27     0  01:54      1.01    0.68    1.00
  YS02006556YS02006558 CONDUIT    791.67     0  01:54      1.01    0.63    1.00
  YS02006558YS02006561 CONDUIT   1249.78     0  01:25      4.42    2.76    1.00
  YS02006561YS02001783 CONDUIT   1169.59     0  01:26      2.33    0.61    1.00
  YS02163301YS02001633 CONDUIT    988.02     0  01:59      1.26    0.93    1.00
  YS02163601YS02164001 CONDUIT   1317.18     0  01:56      1.68    1.17    1.00
  YS02164001YS02001641 CONDUIT   1317.66     0  01:56      1.68    1.80    1.00
  YSB1154YSB6556       CONDUIT    697.22     0  02:37      1.81    1.25    1.00
  YSB1171HS02004479    CONDUIT    376.89     0  02:20      0.75    0.25    1.00
  YSB1174YSB1171       CONDUIT    583.35     0  02:36      1.52    0.89    1.00
  YSB6556YSB1171       CONDUIT    639.83     0  02:38      1.66    0.66    1.00
  CC-R1                PUMP      3415.00     0  00:01              5.00
  CC-R2                PUMP      3415.00     0  00:01              5.00
  CC-S1                PUMP      1000.00     0  00:01              5.00
  CC-S2                PUMP      1000.00     0  00:01              5.00
  JK-R1                PUMP      5000.00     0  01:26              5.00
  JK-R2                PUMP      5000.00     0  01:24              5.00
  JK-S                 PUMP      1500.00     0  00:01              5.00
  XR-1                 PUMP        95.00     0  00:00              1.00
  XR-2                 PUMP        95.00     0  00:00              1.00
  XR-3                 PUMP        95.00     0  00:00              1.00
  XR-4                 PUMP        95.00     0  00:00              1.00
  
  
  ***************************
  Flow Classification Summary
  ***************************
  
  -------------------------------------------------------------------------------------
                      Adjusted    ---------- Fraction of Time in Flow Class ---------- 
                       /Actual         Up    Down  Sub   Sup   Up    Down  Norm  Inlet 
  Conduit               Length    Dry  Dry   Dry   Crit  Crit  Crit  Crit  Ltd   Ctrl  
  -------------------------------------------------------------------------------------
  1                       1.00   0.00  0.00  0.00  0.00  1.00  0.00  0.00  0.33  0.00
  HS02004478WS02006287    1.00   0.09  0.00  0.00  0.59  0.32  0.00  0.00  0.56  0.00
  HS02004479HS02004480    1.00   0.04  0.00  0.00  0.96  0.00  0.00  0.00  0.11  0.00
  HS02004480HS02004478    1.00   0.08  0.00  0.00  0.54  0.00  0.00  0.38  0.00  0.00
  HS02004770HS02004777    1.00   0.00  0.08  0.00  0.92  0.00  0.00  0.00  0.02  0.00
  HS02004777HS02004785    1.00   0.00  0.00  0.00  1.00  0.00  0.00  0.00  0.11  0.00
  HS02004785HS02004788    1.00   0.00  0.00  0.00  1.00  0.00  0.00  0.00  0.00  0.00
  HS02004788HS02004792    1.00   0.00  0.00  0.00  0.99  0.01  0.00  0.00  0.86  0.00
  HS02004792HS02004799    1.00   0.00  0.00  0.00  0.99  0.01  0.00  0.00  0.81  0.00
  HS02004799HS02004480    1.00   0.00  0.03  0.00  0.91  0.00  0.05  0.00  0.00  0.00
  HS02004802HS02004478    1.00   0.08  0.00  0.00  0.92  0.00  0.00  0.00  0.02  0.00
  HS02004807HS02004802    1.00   0.08  0.00  0.00  0.92  0.00  0.00  0.01  0.00  0.00
  HS02004817HS02004807    1.00   0.00  0.08  0.00  0.92  0.00  0.00  0.00  0.01  0.00
  HS02004817HS02004824    1.00   0.00  0.00  0.00  1.00  0.00  0.00  0.00  0.77  0.00
  HS02004824HS02004830    1.00   0.00  0.00  0.00  1.00  0.00  0.00  0.00  0.01  0.00
  HS02004830HS02004837    1.00   0.00  0.00  0.00  1.00  0.00  0.00  0.00  0.83  0.00
  HS02004837HS02004842    1.00   0.00  0.00  0.00  0.99  0.01  0.00  0.00  0.11  0.00
  HS02004842HS02004848    1.00   0.00  0.08  0.00  0.92  0.00  0.00  0.00  0.51  0.00
  HS02004848HS02004852    1.00   0.08  0.00  0.00  0.92  0.00  0.00  0.00  0.68  0.00
  HS02004852HS02004856    1.00   0.08  0.00  0.00  0.92  0.00  0.00  0.00  0.63  0.00
  HS02004856HS02004862    1.00   0.00  0.09  0.00  0.91  0.00  0.00  0.00  0.71  0.00
  HS02004862HS02004870    1.00   0.00  0.00  0.00  1.00  0.00  0.00  0.00  0.02  0.00
  HS02004870HS02004876    1.00   0.00  0.00  0.00  0.99  0.00  0.00  0.00  0.87  0.00
  HS02004876HS02004881    1.00   0.00  0.00  0.00  0.76  0.24  0.00  0.00  0.00  0.00
  HS02004881HS02006253    1.00   0.00  0.00  0.00  0.41  0.02  0.00  0.57  0.10  0.00
  HS02004901HS02004770    1.00   0.08  0.00  0.00  0.92  0.00  0.00  0.00  0.00  0.00
  WS02001211WS02001212    1.00   0.00  0.03  0.00  0.97  0.00  0.00  0.00  0.00  0.00
  WS02001212WS02001213    1.00   0.03  0.00  0.00  0.49  0.00  0.48  0.00  0.00  0.00
  WS02001213WS02003059    1.00   0.00  0.01  0.00  0.99  0.00  0.00  0.00  0.00  0.00
  WS02003059WS02003060    1.00   0.00  0.00  0.00  1.00  0.00  0.00  0.00  0.03  0.00
  WS02003060WS02003069    1.00   0.00  0.00  0.00  0.98  0.02  0.00  0.00  0.51  0.00
  WS02003066WSF200        1.00   0.09  0.00  0.00  0.00  0.91  0.00  0.00  0.57  0.00
  WS02003067WS02003066    1.00   0.08  0.01  0.00  0.91  0.00  0.00  0.00  0.00  0.00
  WS02003069WS02003072    1.00   0.00  0.00  0.00  0.99  0.01  0.00  0.00  0.64  0.00
  WS02003072WS02003073    1.00   0.00  0.00  0.00  0.00  0.00  0.00  1.00  0.00  0.00
  WS02004138WS02004139    1.00   0.00  0.00  0.00  0.97  0.01  0.00  0.02  0.98  0.00
  WS02004139WS02001211    1.00   0.00  0.00  0.00  0.99  0.00  0.00  0.00  0.00  0.00
  WS02004401WS02004402    1.00   0.03  0.00  0.00  0.97  0.00  0.00  0.00  0.00  0.00
  WS02004402WS02004403    1.00   0.03  0.00  0.00  0.97  0.00  0.00  0.00  0.00  0.00
  WS02004403WS02004404    1.00   0.00  0.03  0.00  0.97  0.00  0.00  0.00  0.00  0.00
  WS02004404WS02004405    1.00   0.00  0.00  0.00  1.00  0.00  0.00  0.00  0.00  0.00
  WS02004405WS02004406    1.00   0.00  0.00  0.00  1.00  0.00  0.00  0.00  0.00  0.00
  WS02004406WS02004407    1.00   0.00  0.04  0.00  0.96  0.00  0.00  0.00  0.00  0.00
  WS02004407WS02004409    1.00   0.05  0.00  0.00  0.95  0.00  0.00  0.00  0.76  0.00
  WS02004409WS02004410    1.00   0.05  0.00  0.00  0.95  0.00  0.00  0.00  0.04  0.00
  WS02004410WS02004411    1.00   0.05  0.00  0.00  0.95  0.00  0.00  0.00  0.01  0.00
  WS02004411WS02004412    1.00   0.05  0.00  0.00  0.95  0.00  0.00  0.00  0.00  0.00
  WS02004412WS02004413    1.00   0.05  0.00  0.00  0.95  0.00  0.00  0.00  0.01  0.00
  WS02004413WS02003067    1.00   0.05  0.03  0.00  0.00  0.00  0.92  0.00  0.00  0.00
  WS02006109WS02006110    1.00   0.00  0.01  0.00  0.98  0.00  0.01  0.00  0.00  0.00
  WS02006110WS02006113    1.00   0.01  0.01  0.00  0.98  0.00  0.00  0.00  0.00  0.00
  WS02006111WS02006112    1.00   0.02  0.00  0.00  0.98  0.00  0.00  0.00  0.75  0.00
  WS02006112WS02006115    1.00   0.02  0.00  0.00  0.97  0.00  0.00  0.00  0.00  0.00
  WS02006113WS02006111    1.00   0.02  0.00  0.00  0.37  0.62  0.00  0.00  0.07  0.00
  WS02006115WS02006116    1.00   0.02  0.00  0.00  0.97  0.00  0.00  0.01  0.00  0.00
  WS02006116WS02004401    1.00   0.02  0.00  0.00  0.98  0.00  0.00  0.00  0.00  0.00
  WS02006228WS02006109    1.00   0.00  0.00  0.00  0.99  0.00  0.00  0.00  0.00  0.00
  WS02006229WS02006228    1.00   0.00  0.00  0.00  0.99  0.00  0.00  0.01  0.00  0.00
  WS02006230WS02006229    1.00   0.00  0.00  0.00  0.98  0.00  0.00  0.02  0.03  0.00
  WS02006231WS02006230    1.00   0.00  0.00  0.00  0.53  0.00  0.47  0.00  0.00  0.00
  WS02006232WS02006231    1.00   0.00  0.00  0.00  0.99  0.00  0.00  0.00  0.00  0.00
  WS02006234WS02006232    1.00   0.00  0.00  0.00  1.00  0.00  0.00  0.00  0.09  0.00
  WS02006235WS02006234    1.00   0.00  0.00  0.00  0.88  0.00  0.12  0.00  0.00  0.00
  WS02006238WS02006235    1.00   0.00  0.00  0.00  1.00  0.00  0.00  0.00  0.00  0.00
  WS02006239WS02006238    1.00   0.00  0.00  0.00  1.00  0.00  0.00  0.00  0.21  0.00
  WS02006240WS02006239    1.00   0.00  0.00  0.00  0.69  0.00  0.00  0.30  0.02  0.00
  WS02006242WS02006240    1.00   0.00  0.00  0.00  0.98  0.00  0.02  0.00  0.00  0.00
  WS02006243WS02006242    1.00   0.00  0.00  0.00  0.99  0.00  0.00  0.00  0.63  0.00
  WS02006245WS02006243    1.00   0.00  0.00  0.00  0.90  0.00  0.00  0.10  0.00  0.00
  WS02006247WS02006245    1.00   0.00  0.00  0.00  0.98  0.00  0.00  0.02  0.00  0.00
  WS02006248WS02006247    1.00   0.00  0.00  0.00  0.99  0.00  0.00  0.01  0.60  0.00
  WS02006249WS02006248    1.00   0.00  0.00  0.00  0.60  0.00  0.40  0.00  0.00  0.00
  WS02006251WS02006249    1.00   0.00  0.00  0.00  1.00  0.00  0.00  0.00  0.61  0.00
  WS02006252WS02006251    1.00   0.33  0.25  0.00  0.36  0.01  0.05  0.00  0.19  0.00
  WS02006253WS02006251    1.00   0.00  0.00  0.00  0.99  0.00  0.00  0.00  0.00  0.00
  WS02006256WS02006235    1.00   0.00  0.00  0.00  0.99  0.01  0.00  0.00  0.00  0.00
  WS02006280WS02006229    1.00   0.08  0.00  0.00  0.31  0.04  0.00  0.56  0.00  0.00
  WS02006284WS02006280    1.00   0.08  0.00  0.00  0.23  0.02  0.00  0.67  0.00  0.00
  WS02006287WS02006284    1.00   0.07  0.02  0.00  0.50  0.41  0.00  0.00  0.61  0.00
  WSF200WS02003060        1.00   0.00  0.09  0.00  0.46  0.45  0.00  0.00  0.55  0.00
  YS02001580YS02001583    1.00   0.11  0.53  0.00  0.36  0.00  0.00  0.00  0.70  0.00
  YS02001583YS02001586    1.00   0.26  0.26  0.00  0.48  0.00  0.00  0.00  0.70  0.00
  YS02001586YS02001590    1.00   0.08  0.00  0.00  0.64  0.03  0.00  0.26  0.33  0.00
  YS02001590YS02001593    1.00   0.08  0.00  0.00  0.26  0.00  0.66  0.00  0.00  0.00
  YS02001593YS02001596    1.00   0.08  0.00  0.00  0.29  0.01  0.00  0.62  0.03  0.00
  YS02001596YS02001600    1.00   0.08  0.00  0.00  0.38  0.02  0.00  0.52  0.04  0.00
  YS02001600YS02001601    1.00   0.08  0.00  0.00  0.92  0.00  0.00  0.00  0.59  0.00
  YS02001601YS02001602    1.00   0.08  0.00  0.00  0.92  0.00  0.00  0.00  0.00  0.00
  YS02001602YS02001605    1.00   0.08  0.00  0.00  0.92  0.00  0.00  0.00  0.00  0.00
  YS02001605YS02001607    1.00   0.08  0.00  0.00  0.92  0.00  0.00  0.00  0.00  0.00
  YS02001607YS02001610    1.00   0.08  0.00  0.00  0.92  0.00  0.00  0.00  0.01  0.00
  YS02001610YS02001613    1.00   0.08  0.00  0.00  0.92  0.00  0.00  0.00  0.00  0.00
  YS02001613YS02001616    1.00   0.08  0.00  0.00  0.92  0.00  0.00  0.00  0.00  0.00
  YS02001616YS02001619    1.00   0.08  0.00  0.00  0.92  0.00  0.00  0.00  0.00  0.00
  YS02001619YS02001622    1.00   0.08  0.00  0.00  0.92  0.00  0.00  0.00  0.29  0.00
  YS02001622YS02001625    1.00   0.08  0.00  0.00  0.92  0.00  0.00  0.00  0.03  0.00
  YS02001625YS02001629    1.00   0.08  0.02  0.00  0.33  0.00  0.58  0.00  0.00  0.00
  YS02001629YS02163301    1.00   0.08  0.00  0.00  0.91  0.00  0.00  0.00  0.00  0.00
  YS02001633YS02163601    1.00   0.00  0.01  0.00  0.99  0.00  0.00  0.00  0.14  0.00
  YS02001641YS02001644    1.00   0.00  0.01  0.00  0.99  0.00  0.00  0.00  0.00  0.00
  YS02001644YS02001647    1.00   0.00  0.09  0.00  0.91  0.00  0.00  0.00  0.00  0.00
  YS02001647YS02001649    1.00   0.00  0.09  0.00  0.50  0.41  0.00  0.00  0.57  0.00
  YS02001649YS02001757    1.00   0.00  0.00  0.00  0.53  0.47  0.00  0.00  0.55  0.00
  YS02001652YS02001649    1.00   0.00  0.00  0.00  0.98  0.02  0.00  0.00  0.71  0.00
  YS02001655YS02001652    1.00   0.00  0.00  0.00  0.37  0.01  0.00  0.62  0.12  0.00
  YS02001658YS02001655    1.00   0.00  0.08  0.00  0.55  0.37  0.00  0.00  0.75  0.00
  YS02001661YS02001658    1.00   0.08  0.00  0.00  0.36  0.56  0.00  0.00  0.77  0.00
  YS02001664YS02001661    1.00   0.08  0.00  0.00  0.65  0.27  0.00  0.00  0.85  0.00
  YS02001745YS02001748    1.00   0.00  0.00  0.00  0.09  0.02  0.00  0.89  0.03  0.00
  YS02001748YS02001751    1.00   0.00  0.00  0.00  0.65  0.35  0.00  0.00  0.85  0.00
  YS02001751YS02001754    1.00   0.00  0.00  0.00  0.26  0.01  0.00  0.73  0.07  0.00
  YS02001754YS02001757    1.00   0.00  0.00  0.00  1.00  0.00  0.00  0.00  0.83  0.00
  YS02001757CaochengTiaoxuchi    1.00   0.00  0.00  0.00  0.70  0.30  0.00  0.00  0.86  0.00
  YS02001759YS02001757    1.00   0.00  0.00  0.00  0.99  0.01  0.00  0.00  0.61  0.00
  YS02001762YS02001759    1.00   0.00  0.00  0.00  1.00  0.00  0.00  0.00  0.02  0.00
  YS02001765YS02001762    1.00   0.00  0.00  0.00  1.00  0.00  0.00  0.00  0.72  0.00
  YS02001767YS02001765    1.00   0.00  0.00  0.00  1.00  0.00  0.00  0.00  0.00  0.00
  YS02001770YS02001767    1.00   0.00  0.00  0.00  1.00  0.00  0.00  0.00  0.00  0.00
  YS02001774YS02001770    1.00   0.00  0.08  0.00  0.82  0.00  0.10  0.00  0.02  0.00
  YS02001779YS02001774    1.00   0.00  0.00  0.00  1.00  0.00  0.00  0.00  0.77  0.00
  YS02001783YS02001784    1.00   0.00  0.09  0.00  0.91  0.00  0.00  0.00  0.55  0.00
  YS02001784YS02001785    1.00   0.00  0.00  0.00  1.00  0.00  0.00  0.00  0.15  0.00
  YS02001786YS02001788    1.00   0.00  0.00  0.00  0.66  0.34  0.00  0.00  0.00  0.00
  YS02001788YS02001790    1.00   0.00  0.00  0.00  0.17  0.83  0.00  0.00  0.78  0.00
  YS02001790YS02001791    1.00   0.00  0.00  0.00  0.02  0.98  0.00  0.00  0.17  0.00
  YS02001791YS02001793    1.00   0.00  0.00  0.00  0.00  1.00  0.00  0.00  0.01  0.00
  YS02001793JiankangQianchi    1.00   0.00  0.00  0.00  0.88  0.12  0.00  0.00  1.00  0.00
  YS02001882YS02001884    1.00   0.08  0.00  0.00  0.91  0.00  0.00  0.00  0.00  0.00
  YS02001884YS02001887    1.00   0.05  0.02  0.00  0.93  0.00  0.00  0.00  0.00  0.00
  YS02001887YS02001890    1.00   0.00  0.00  0.00  0.97  0.00  0.03  0.00  0.00  0.00
  YS02001890YS02001895    1.00   0.00  0.08  0.00  0.91  0.00  0.00  0.00  0.00  0.00
  YS02001895YS02001898    1.00   0.09  0.00  0.00  0.90  0.00  0.01  0.00  0.00  0.00
  YS02001898YS02001901    1.00   0.09  0.00  0.00  0.91  0.00  0.00  0.00  0.00  0.00
  YS02001901YS02001904    1.00   0.09  0.00  0.00  0.91  0.00  0.00  0.00  0.00  0.00
  YS02001904YS02001907    1.00   0.00  0.09  0.00  0.91  0.00  0.00  0.00  0.00  0.00
  YS02001907YS02006553    1.00   0.00  0.02  0.00  0.97  0.00  0.00  0.00  0.00  0.00
  YS02001910YS02001907    1.00   0.00  0.00  0.00  0.97  0.00  0.00  0.03  0.12  0.00
  YS02001915YS02001910    1.00   0.00  0.00  0.00  0.98  0.02  0.00  0.00  0.13  0.00
  YS02001918YS02001915    1.00   0.00  0.01  0.00  0.98  0.02  0.00  0.00  0.72  0.00
  YS02001920YS02001918    1.00   0.00  0.01  0.00  0.99  0.00  0.00  0.00  0.00  0.00
  YS02001923YS02001920    1.00   0.00  0.00  0.00  1.00  0.00  0.00  0.00  0.90  0.00
  YS02001926YS02001923    1.00   0.00  0.05  0.00  0.15  0.00  0.80  0.00  0.00  0.00
  YS02001929YS02001926    1.00   0.00  0.08  0.00  0.92  0.00  0.00  0.00  0.80  0.00
  YS02006553YS02006556    1.00   0.01  0.00  0.00  0.99  0.00  0.00  0.00  0.03  0.00
  YS02006556YS02006558    1.00   0.00  0.00  0.00  1.00  0.00  0.00  0.00  0.00  0.00
  YS02006558YS02006561    1.00   0.09  0.00  0.00  0.14  0.77  0.00  0.00  0.19  0.00
  YS02006561YS02001783    1.00   0.09  0.00  0.00  0.19  0.71  0.00  0.00  0.67  0.00
  YS02163301YS02001633    1.00   0.00  0.08  0.00  0.92  0.00  0.00  0.00  0.00  0.00
  YS02163601YS02164001    1.00   0.00  0.06  0.00  0.94  0.00  0.00  0.00  0.00  0.00
  YS02164001YS02001641    1.00   0.01  0.05  0.00  0.94  0.00  0.00  0.00  0.05  0.00
  YSB1154YSB6556          1.00   0.08  0.00  0.00  0.92  0.00  0.00  0.00  0.01  0.00
  YSB1171HS02004479       1.00   0.04  0.00  0.00  0.96  0.00  0.00  0.01  0.09  0.00
  YSB1174YSB1171          1.00   0.04  0.02  0.00  0.94  0.00  0.00  0.00  0.00  0.00
  YSB6556YSB1171          1.00   0.04  0.04  0.00  0.92  0.00  0.00  0.00  0.00  0.00
  
  
  *************************
  Conduit Surcharge Summary
  *************************
  
  ----------------------------------------------------------------------------
                                                           Hours        Hours 
                         --------- Hours Full --------   Above Full   Capacity
  Conduit                Both Ends  Upstream  Dnstream   Normal Flow   Limited
  ----------------------------------------------------------------------------
  HS02004478WS02006287        0.74      0.74      0.96      0.01         0.01
  HS02004479HS02004480        0.96      0.96      0.99      0.01         0.01
  HS02004480HS02004478        0.87      0.95      0.87      2.03         0.87
  HS02004770HS02004777        0.83      0.83      0.84      0.16         0.11
  HS02004777HS02004785        0.78      0.78      0.84      0.01         0.01
  HS02004785HS02004788        0.77      0.78      0.77      1.66         0.64
  HS02004788HS02004792        0.77      0.77      0.91      0.01         0.01
  HS02004792HS02004799        0.91      0.91      1.09      0.01         0.01
  HS02004799HS02004480        0.95      0.95      1.09      1.19         0.01
  HS02004802HS02004478        0.88      0.88      0.98      0.26         0.01
  HS02004807HS02004802        0.93      0.93      0.97      0.45         0.45
  HS02004817HS02004807        0.93      0.93      1.60      0.01         0.01
  HS02004817HS02004824        0.76      0.76      1.60      0.01         0.01
  HS02004824HS02004830        0.73      0.73      0.76      0.01         0.01
  HS02004830HS02004837        0.67      0.67      0.73      0.01         0.01
  HS02004837HS02004842        0.67      0.67      0.85      0.01         0.01
  HS02004842HS02004848        0.62      0.62      0.85      0.01         0.01
  HS02004848HS02004852        0.62      0.62      0.65      0.01         0.01
  HS02004852HS02004856        0.65      0.65      0.67      0.01         0.01
  HS02004856HS02004862        0.62      0.62      0.67      0.01         0.01
  HS02004862HS02004870        0.66      0.67      0.66      0.37         0.34
  HS02004870HS02004876        0.66      0.66      0.75      0.01         0.01
  HS02004876HS02004881        0.69      0.75      0.69      1.82         0.69
  HS02004881HS02006253        0.69      0.69      1.58      0.01         0.01
  HS02004901HS02004770        0.83      0.83      0.84      0.20         0.01
  WS02003072WS02003073        0.01      0.01      0.01      2.38         0.01
  WS02004401WS02004402        1.79      1.79      1.82      1.69         1.66
  WS02004402WS02004403        1.82      1.82      1.82      1.80         1.78
  WS02004403WS02004404        1.82      1.82      1.89      0.01         0.05
  WS02004404WS02004405        1.88      1.89      1.88      3.14         1.88
  WS02004405WS02004406        1.86      1.88      1.86      2.01         1.86
  WS02004406WS02004407        0.09      0.09      1.86      0.01         0.01
  WS02004407WS02004409        0.09      0.09      1.43      0.01         0.01
  WS02004409WS02004410        1.30      1.43      1.30      1.73         1.30
  WS02004410WS02004411        1.22      1.30      1.22      1.77         1.22
  WS02004411WS02004412        1.12      1.22      1.12      1.79         1.12
  WS02004412WS02004413        1.12      1.12      1.64      0.01         0.01
  WS02004413WS02003067        0.01      0.01      1.64      0.01         0.01
  WS02006109WS02006110        1.99      1.99      2.14      1.99         0.01
  WS02006110WS02006113        1.63      1.63      2.13      0.37         0.01
  WS02006111WS02006112        1.62      1.62      2.27      0.01         0.01
  WS02006112WS02006115        1.74      1.74      2.03      0.01         0.01
  WS02006113WS02006111        1.63      1.63      1.63      1.69         1.63
  WS02006115WS02006116        1.75      1.75      1.75      1.73         1.71
  WS02006116WS02004401        1.79      1.79      1.79      1.78         1.76
  WS02006228WS02006109        2.12      2.14      2.12      2.40         2.12
  WS02006229WS02006228        2.12      2.13      2.12      2.26         2.12
  WS02006230WS02006229        2.17      2.19      2.18      3.27         0.69
  WS02006231WS02006230        1.85      1.85      1.88      2.72         1.42
  WS02006232WS02006231        1.86      1.86      1.98      0.01         0.20
  WS02006234WS02006232        1.89      1.89      1.98      0.01         0.01
  WS02006235WS02006234        1.84      1.85      1.87      2.26         1.39
  WS02006238WS02006235        1.88      1.88      1.91      0.01         0.36
  WS02006239WS02006238        1.87      1.88      1.89      1.17         0.07
  WS02006240WS02006239        1.82      1.83      1.83      1.17         0.06
  WS02006242WS02006240        1.82      1.82      1.87      1.26         1.26
  WS02006243WS02006242        1.81      1.82      1.85      0.01         0.01
  WS02006245WS02006243        1.79      1.80      1.80      0.04         0.05
  WS02006247WS02006245        1.78      1.82      1.78      1.79         0.28
  WS02006248WS02006247        1.77      1.78      1.81      0.04         0.04
  WS02006249WS02006248        1.76      1.76      1.78      0.29         0.01
  WS02006251WS02006249        1.76      1.79      1.78      1.41         1.30
  WS02006252WS02006251        1.59      3.51      1.69      0.69         0.20
  WS02006253WS02006251        1.76      1.78      1.80      1.14         0.08
  WS02006256WS02006235        2.52      2.60      6.20      0.13         0.03
  WS02006280WS02006229        1.12      1.12      1.26      0.01         0.01
  WS02006284WS02006280        1.00      1.00      1.10      0.01         0.01
  WS02006287WS02006284        0.86      0.86      1.01      0.51         0.51
  YS02001580YS02001583        0.82      0.82      0.84      0.01         0.01
  YS02001583YS02001586        0.83      0.83      0.94      0.01         0.01
  YS02001586YS02001590        0.94      0.94      1.02      0.01         0.01
  YS02001590YS02001593        1.02      1.02      1.04      1.16         0.01
  YS02001593YS02001596        1.03      1.03      1.14      0.01         0.01
  YS02001596YS02001600        1.19      1.19      1.34      0.01         0.01
  YS02001600YS02001601        1.43      1.43      1.75      0.01         0.01
  YS02001601YS02001602        1.67      1.67      1.78      1.38         0.01
  YS02001602YS02001605        1.61      1.61      1.67      2.35         0.01
  YS02001605YS02001607        1.54      1.61      1.54      1.72         1.54
  YS02001607YS02001610        0.92      0.92      0.96      0.01         0.01
  YS02001610YS02001613        0.91      0.91      0.96      0.01         0.01
  YS02001613YS02001616        0.86      0.86      0.91      0.01         0.01
  YS02001616YS02001619        0.84      0.84      0.86      0.01         0.03
  YS02001619YS02001622        0.83      0.84      0.83      1.08         0.81
  YS02001622YS02001625        0.83      0.83      1.07      0.01         0.01
  YS02001625YS02001629        0.67      0.67      1.07      0.01         0.01
  YS02001629YS02163301        1.04      1.04      1.05      0.48         0.48
  YS02001633YS02163601        1.07      1.07      1.11      0.65         0.64
  YS02001641YS02001644        0.84      0.93      0.84      1.79         0.83
  YS02001644YS02001647        0.51      0.51      0.84      0.02         0.01
  YS02001647YS02001649        0.51      0.51      0.54      0.01         0.01
  YS02001649YS02001757        0.52      0.54      0.52      0.54         0.41
  YS02001652YS02001649        0.44      0.44      0.54      0.01         0.01
  YS02001655YS02001652        0.32      0.32      0.42      0.01         0.01
  YS02001658YS02001655        0.22      0.22      0.32      0.01         0.01
  YS02001661YS02001658        0.04      0.04      0.22      0.01         0.01
  YS02001664YS02001661        0.01      0.01      0.09      0.01         0.01
  YS02001745YS02001748        0.01      0.01      0.11      0.01         0.01
  YS02001748YS02001751        0.18      0.18      0.24      0.01         0.01
  YS02001751YS02001754        0.24      0.24      0.32      0.01         0.01
  YS02001754YS02001757        0.34      0.34      0.52      0.01         0.01
  YS02001757CaochengTiaoxuchi        0.01      0.52      0.01      0.65         0.01
  YS02001759YS02001757        0.47      0.47      0.52      0.05         0.09
  YS02001762YS02001759        0.45      0.45      0.47      0.01         0.04
  YS02001765YS02001762        0.43      0.43      0.45      0.01         0.01
  YS02001767YS02001765        0.41      0.41      0.43      0.03         0.06
  YS02001770YS02001767        0.41      0.42      0.41      0.72         0.41
  YS02001774YS02001770        0.40      0.40      0.46      0.01         0.01
  YS02001779YS02001774        0.34      0.34      0.46      0.01         0.01
  YS02001783YS02001784        0.67      0.69      0.67      0.84         0.67
  YS02001784YS02001785        0.55      0.67      0.55      1.13         0.55
  YS02001786YS02001788        0.01      0.55      0.01      0.98         0.01
  YS02001790YS02001791        0.01      0.01      0.01      0.66         0.01
  YS02001793JiankangQianchi        0.01      0.01      3.22      0.01         0.01
  YS02001882YS02001884        0.63      0.63      0.64      0.01         0.01
  YS02001884YS02001887        0.67      0.67      0.68      0.01         0.01
  YS02001887YS02001890        0.70      0.70      0.71      0.17         0.01
  YS02001890YS02001895        0.62      0.62      0.73      0.01         0.01
  YS02001895YS02001898        0.61      0.61      0.62      0.01         0.01
  YS02001898YS02001901        0.62      0.62      0.67      0.01         0.01
  YS02001901YS02001904        0.66      0.66      0.67      0.01         0.01
  YS02001904YS02001907        0.66      0.66      0.93      0.01         0.01
  YS02001907YS02006553        1.16      1.16      1.24      0.01         0.01
  YS02001910YS02001907        0.73      0.73      0.90      0.01         0.01
  YS02001915YS02001910        0.63      0.63      0.73      0.01         0.01
  YS02001918YS02001915        0.54      0.54      0.63      0.01         0.01
  YS02001920YS02001918        0.54      0.54      0.55      0.01         0.01
  YS02001923YS02001920        0.49      0.49      0.55      0.01         0.01
  YS02001926YS02001923        0.17      0.17      0.20      0.01         0.01
  YS02001929YS02001926        0.01      0.01      0.20      0.01         0.01
  YS02006553YS02006556        0.81      0.81      0.93      0.01         0.01
  YS02006556YS02006558        0.86      0.86      0.96      0.01         0.01
  YS02006558YS02006561        0.58      0.80      0.58      1.08         0.58
  YS02006561YS02001783        0.50      0.50      0.69      0.01         0.01
  YS02163301YS02001633        1.05      1.05      1.10      0.01         0.03
  YS02163601YS02164001        0.95      0.95      1.11      0.38         0.01
  YS02164001YS02001641        0.93      0.95      0.93      0.95         0.71
  YSB1154YSB6556              1.04      1.04      1.24      0.08         0.01
  YSB1171HS02004479           0.91      0.91      1.24      0.01         0.01
  YSB1174YSB1171              1.14      1.14      1.50      0.01         0.01
  YSB6556YSB1171              1.04      1.04      1.67      0.01         0.01
  
  
  ***************
  Pumping Summary
  ***************
  
  ---------------------------------------------------------------------------------------------------------
                                                  Min       Avg       Max     Total     Power    % Time Off
                        Percent   Number of      Flow      Flow      Flow    Volume     Usage    Pump Curve
  Pump                 Utilized   Start-Ups       LPS       LPS       LPS  10^6 ltr     Kw-hr    Low   High
  ---------------------------------------------------------------------------------------------------------
  CC-R1                    6.61          52      0.00   3348.18   3415.00     6.338    104.84    0.0  100.0
  CC-R2                    3.33          54      0.00   3292.47   3415.00     3.108     51.05    0.0  100.0
  CC-S1                    9.89          51      0.00    893.75   1000.00     2.554     24.61    0.0    0.0
  CC-S2                    7.58          50      0.00    981.05   1000.00     2.135     20.62    0.0    0.0
  JK-R1                    1.45          56      0.00   3965.52   5000.00     1.673     10.61    0.0    0.0
  JK-R2                    1.41          55      0.00   4666.67   5000.00     1.836     11.33    0.0    0.0
  JK-S                     3.81          99      0.00   1261.74   1500.00     1.445     28.58    0.0    0.0
  XR-1                    97.91           2      0.00     95.00     95.00     2.679      9.59    0.0    0.0
  XR-2                    93.94           2      0.00     95.00     95.00     2.570      8.75    0.0    0.0
  XR-3                     0.00           1      0.00     95.00     95.00     0.000      0.00    0.0    0.0
  XR-4                     0.00           1      0.00     95.00     95.00     0.000      0.00    0.0    0.0
  

  Analysis begun on:  Thu Jul 20 19:14:50 2023
  Analysis ended on:  Thu Jul 20 19:15:21 2023
  Total elapsed time: 00:00:31