
  OWA STORM WATER MANAGEMENT MODEL - VERSION v5.1.14 (OWA 2022-07-31)
  --------------------------------------------------------------

  WARNING 04: minimum elevation drop used for Conduit WS02004404WS02004405
  WARNING 03: negative offset ignored for Link YS02001904YS02001907
  
  *********************************************************
  NOTE: The summary statistics displayed in this report are
  based on results found at every computational time step,  
  not just on results from each reporting time step.
  *********************************************************
  
  ****************
  Analysis Options
  ****************
  Flow Units ............... LPS
  Process Models:
    Rainfall/Runoff ........ YES
    RDII ................... NO
    Snowmelt ............... NO
    Groundwater ............ NO
    Flow Routing ........... YES
    Ponding Allowed ........ NO
    Water Quality .......... NO
  Infiltration Method ...... HORTON
  Flow Routing Method ...... DYNWAVE
  Surcharge Method ......... EXTRAN
  Starting Date ............ 08/28/2015 08:00:00
  Ending Date .............. 08/28/2015 16:00:00
  Antecedent Dry Days ...... 8.0
  Report Time Step ......... 00:01:00
  Wet Time Step ............ 00:01:00
  Dry Time Step ............ 00:01:00
  Routing Time Step ........ 30.00 sec
  Variable Time Step ....... YES
  Maximum Trials ........... 8
  Number of Threads ........ 1
  Head Tolerance ........... 0.001500 m
  
  
  **************************        Volume         Depth
  Runoff Quantity Continuity     hectare-m            mm
  **************************     ---------       -------
  Initial LID Storage ......         0.049         1.488
  Total Precipitation ......         0.859        25.887
  Evaporation Loss .........         0.000         0.000
  Infiltration Loss ........         0.066         1.976
  Surface Runoff ...........         0.587        17.692
  Final Storage ............         0.256         7.726
  Continuity Error (%) .....        -0.068
  
  
  **************************        Volume        Volume
  Flow Routing Continuity        hectare-m      10^6 ltr
  **************************     ---------     ---------
  Dry Weather Inflow .......         0.000         0.000
  Wet Weather Inflow .......         0.587         5.865
  Groundwater Inflow .......         0.000         0.000
  RDII Inflow ..............         0.000         0.000
  External Inflow ..........         0.083         0.834
  External Outflow .........         0.743         7.429
  Flooding Loss ............         0.023         0.235
  Evaporation Loss .........         0.000         0.000
  Exfiltration Loss ........         0.000         0.000
  Initial Stored Volume ....         0.243         2.431
  Final Stored Volume ......         0.178         1.779
  Continuity Error (%) .....        -3.431
  
  
  *************************
  Highest Continuity Errors
  *************************
  Node YS02001583 (-4.85%)
  Node YS02001884 (4.56%)
  Node YS02001774 (3.57%)
  Node WS02006110 (-2.89%)
  Node WS02006256 (-2.38%)
  
  
  ***************************
  Time-Step Critical Elements
  ***************************
  Link WS02006252WS02006251 (45.94%)
  Link WS02004404WS02004405 (24.33%)
  Link WS02006238WS02006235 (15.34%)
  Link WS02003066WSF200 (5.84%)
  Link YS02001791YS02001793 (2.77%)
  
  
  ********************************
  Highest Flow Instability Indexes
  ********************************
  Link WS02006113WS02006111 (28)
  Link WS02006256WS02006235 (11)
  Link YS02006558YS02006561 (8)
  Link WS02006111WS02006112 (7)
  Link WS02006238WS02006235 (7)
  
  
  *************************
  Routing Time Step Summary
  *************************
  Minimum Time Step           :     0.02 sec
  Average Time Step           :     2.76 sec
  Maximum Time Step           :    30.00 sec
  Percent in Steady State     :    -0.00
  Average Iterations per Step :     2.57
  Percent Not Converging      :     5.62
  
  
  ***************************
  Subcatchment Runoff Summary
  ***************************
  
  ------------------------------------------------------------------------------------------------------------------------------
                            Total      Total      Total      Total     Imperv       Perv      Total       Total     Peak  Runoff
                           Precip      Runon       Evap      Infil     Runoff     Runoff     Runoff      Runoff   Runoff   Coeff
  Subcatchment                 mm         mm         mm         mm         mm         mm         mm    10^6 ltr      LPS
  ------------------------------------------------------------------------------------------------------------------------------
  sub60                     25.89       0.00       0.00       1.19      16.65       1.21      17.86        0.23   180.82   0.690
  sub61                     25.89       0.00       0.00       1.83      16.64       1.77      18.41        0.34   259.78   0.711
  sub62                     25.89       0.00       0.00       0.81      17.73       0.82      18.55        0.51   354.23   0.717
  sub63                     25.89       0.00       0.00       3.38      14.25       2.77      17.02        0.39   279.77   0.657
  sub64                     25.89       0.00       0.00       1.62      16.21       1.41      17.62        0.42   278.35   0.681
  sub65                     25.89       0.00       0.00       1.49      17.49       1.28      18.77        0.52   323.44   0.725
  sub66                     25.89       0.00       0.00       3.87      13.75       2.09      15.83        0.74   391.99   0.612
  sub67                     25.89       0.00       0.00       0.80      18.19       0.87      19.06        0.35   287.12   0.736
  sub68                     25.89       0.00       0.00       1.41      16.06       1.36      17.41        0.48   352.50   0.673
  sub69                     25.89       0.00       0.00       1.24      17.36       1.83      19.20        0.71   425.25   0.742
  sub70                     25.89       0.00       0.00       4.10      13.88       3.11      16.99        0.49   228.19   0.656
  sub71                     25.89       0.00       0.00       0.75      16.10       0.73      16.83        0.44   286.86   0.650
  sub72                     25.89       0.00       0.00       0.71      17.37       0.67      18.04        0.25   144.46   0.697
  

  ***********************
  LID Performance Summary
  ***********************

  --------------------------------------------------------------------------------------------------------------------
                                         Total      Evap     Infil   Surface    Drain    Initial     Final  Continuity
                                        Inflow      Loss      Loss   Outflow   Outflow   Storage   Storage       Error
  Subcatchment      LID Control             mm        mm        mm        mm        mm        mm        mm           %
  --------------------------------------------------------------------------------------------------------------------
  sub60             GreenRoof            25.89      0.00      0.00      0.00      0.00      7.05     33.00       -0.20
  sub61             GreenRoof            25.89      0.00      0.00      0.00      0.00      7.05     33.00       -0.20
  sub62             GreenRoof            25.89      0.00      0.00      0.00      0.00      7.05     33.00       -0.20
  sub63             GreenRoof            25.89      0.00      0.00      0.00      0.00      7.05     33.00       -0.20
  sub64             GreenRoof            25.89      0.00      0.00      0.00      0.00      7.05     33.00       -0.20
  sub65             GreenRoof            25.89      0.00      0.00      0.00      0.00      7.05     33.00       -0.20
  sub66             GreenRoof            25.89      0.00      0.00      0.00      0.00      7.05     33.00       -0.20
  sub67             GreenRoof            25.89      0.00      0.00      0.00      0.00      7.05     33.00       -0.20
  sub68             GreenRoof            25.89      0.00      0.00      0.00      0.00      7.05     33.00       -0.20
  sub69             GreenRoof            25.89      0.00      0.00      0.00      0.00      7.05     33.00       -0.20
  sub70             GreenRoof            25.89      0.00      0.00      0.00      0.00      7.05     33.00       -0.20
  sub71             GreenRoof            25.89      0.00      0.00      0.00      0.00      7.05     33.00       -0.20
  sub72             GreenRoof            25.89      0.00      0.00      0.00      0.00      7.05     33.00       -0.20
  
  ******************
  Node Depth Summary
  ******************
  
  ---------------------------------------------------------------------------------
                                 Average  Maximum  Maximum  Time of Max    Reported
                                   Depth    Depth      HGL   Occurrence   Max Depth
  Node                 Type       Meters   Meters   Meters  days hr:min      Meters
  ---------------------------------------------------------------------------------
  WS02003060           JUNCTION     0.18     0.37     5.30     0  02:44        0.37
  WS02003066           JUNCTION     0.16     0.29     5.84     0  02:44        0.29
  WS02003067           JUNCTION     0.45     0.69     6.01     0  02:44        0.69
  WS02003069           JUNCTION     0.20     0.41     5.00     0  02:45        0.41
  WS02003072           JUNCTION     0.26     0.49     4.86     0  02:46        0.48
  WS02003073           JUNCTION     0.14     0.29     4.35     0  02:47        0.29
  WS02004401           JUNCTION     0.51     0.84     6.84     0  02:41        0.83
  WS02004402           JUNCTION     0.55     0.86     6.82     0  02:41        0.86
  WS02004403           JUNCTION     0.57     0.88     6.81     0  02:41        0.88
  WS02004404           JUNCTION     0.65     0.95     6.80     0  02:41        0.95
  WS02004405           JUNCTION     0.65     0.95     6.80     0  02:41        0.95
  WS02004406           JUNCTION     0.67     0.95     6.78     0  02:41        0.95
  WS02004407           JUNCTION     0.13     0.29     6.60     0  02:42        0.29
  WS02004409           JUNCTION     0.30     0.64     6.41     0  02:43        0.64
  WS02004410           JUNCTION     0.33     0.66     6.38     0  02:43        0.65
  WS02004411           JUNCTION     0.36     0.67     6.35     0  02:43        0.67
  WS02004412           JUNCTION     0.39     0.68     6.32     0  02:44        0.68
  WS02004413           JUNCTION     0.55     0.84     6.31     0  02:44        0.84
  WS02006109           JUNCTION     0.54     1.32     7.94     0  02:36        1.32
  WS02006110           JUNCTION     0.56     1.58     8.17     0  02:36        1.58
  WS02006111           JUNCTION     0.14     1.67     8.37     0  00:00        0.56
  WS02006112           JUNCTION     0.66     2.68     8.56     0  00:00        1.29
  WS02006113           JUNCTION     0.20     1.50     8.40     0  00:00        0.45
  WS02006115           JUNCTION     0.39     1.69     7.83     0  00:00        0.86
  WS02006116           JUNCTION     0.48     1.11     7.15     0  00:00        0.81
  WS02006228           JUNCTION     0.52     1.64     8.29     0  00:00        1.12
  WS02006229           JUNCTION     0.49     1.31     8.00     0  00:00        1.05
  WS02006230           JUNCTION     0.47     1.50     8.25     0  02:35        1.10
  WS02006231           JUNCTION     0.29     1.19     8.31     0  02:35        0.85
  WS02006232           JUNCTION     0.41     1.32     8.36     0  02:35        1.04
  WS02006234           JUNCTION     0.31     1.29     8.45     0  02:35        1.06
  WS02006235           JUNCTION     0.34     1.44     8.60     0  02:35        1.15
  WS02006238           JUNCTION     0.37     1.48     8.63     0  02:35        1.17
  WS02006239           JUNCTION     0.32     1.46     8.67     0  02:35        1.16
  WS02006240           JUNCTION     0.29     1.40     8.70     0  02:35        1.13
  WS02006242           JUNCTION     0.34     1.46     8.73     0  02:35        1.21
  WS02006243           JUNCTION     0.25     1.33     8.75     0  02:35        1.12
  WS02006245           JUNCTION     0.26     1.26     8.74     0  02:35        1.11
  WS02006247           JUNCTION     0.27     1.22     8.72     0  02:35        1.13
  WS02006248           JUNCTION     0.24     1.10     8.69     0  02:35        1.08
  WS02006249           JUNCTION     0.27     1.09     8.69     0  02:29        1.09
  WS02006251           JUNCTION     0.26     1.63     9.30     0  02:35        1.12
  WS02006252           JUNCTION     0.21     1.50     9.74     0  00:25        0.67
  WS02006256           JUNCTION     0.86     2.35     9.28     0  00:10        2.35
  WSF200               JUNCTION     0.13     0.28     5.51     0  02:44        0.28
  YS02001580           JUNCTION     0.02     1.05     9.59     0  02:26        0.67
  YS02001583           JUNCTION     0.04     1.06     9.56     0  02:26        0.70
  YS02001586           JUNCTION     0.10     1.13     9.30     0  02:26        1.01
  YS02001590           JUNCTION     0.18     1.40     9.26     0  02:24        1.26
  YS02001593           JUNCTION     0.11     1.46     9.32     0  02:24        1.20
  YS02001596           JUNCTION     0.17     1.67     9.09     0  02:26        1.59
  YS02001600           JUNCTION     0.23     1.87     9.00     0  02:26        1.82
  YS02001601           JUNCTION     0.41     2.06     8.90     0  02:24        2.06
  YS02001602           JUNCTION     0.34     1.87     8.77     0  02:26        1.83
  YS02001605           JUNCTION     0.31     1.74     8.65     0  02:26        1.62
  YS02001607           JUNCTION     0.31     1.56     8.41     0  02:26        1.31
  YS02001610           JUNCTION     0.34     1.61     8.41     0  02:26        1.35
  YS02001613           JUNCTION     0.31     1.56     8.40     0  02:26        1.29
  YS02001616           JUNCTION     0.25     1.46     8.38     0  02:26        1.20
  YS02001619           JUNCTION     0.22     1.42     8.35     0  02:26        1.24
  YS02001622           JUNCTION     0.21     1.37     8.27     0  02:26        1.21
  YS02001625           JUNCTION     0.44     1.65     8.25     0  02:26        1.36
  YS02001629           JUNCTION     0.32     1.74     8.29     0  02:26        1.35
  YS02001633           JUNCTION     0.39     1.67     8.13     0  02:26        1.37
  YS02001641           JUNCTION     0.38     1.31     7.74     0  02:26        1.16
  YS02001644           JUNCTION     0.37     1.17     7.60     0  02:26        1.10
  YS02001647           JUNCTION     0.17     0.75     7.36     0  02:26        0.73
  YS02001649           JUNCTION     0.19     0.85     7.24     0  02:28        0.81
  YS02001652           JUNCTION     0.09     0.65     7.24     0  02:28        0.64
  YS02001655           JUNCTION     0.05     0.39     7.24     0  02:27        0.35
  YS02001658           JUNCTION     0.05     0.23     7.38     0  02:25        0.23
  YS02001661           JUNCTION     0.10     0.29     7.70     0  02:25        0.29
  YS02001664           JUNCTION     0.04     0.20     8.13     0  02:25        0.20
  YS02001745           JUNCTION     0.03     0.18     7.70     0  02:25        0.18
  YS02001748           JUNCTION     0.04     0.20     7.28     0  02:25        0.20
  YS02001751           JUNCTION     0.04     0.20     7.08     0  02:25        0.20
  YS02001754           JUNCTION     0.05     0.48     7.09     0  02:28        0.48
  YS02001757           JUNCTION     0.19     0.81     7.07     0  02:28        0.79
  YS02001759           JUNCTION     0.13     0.71     7.07     0  02:28        0.70
  YS02001762           JUNCTION     0.12     0.68     7.08     0  02:29        0.68
  YS02001765           JUNCTION     0.11     0.64     7.09     0  02:30        0.64
  YS02001767           JUNCTION     0.11     0.61     7.10     0  02:29        0.60
  YS02001770           JUNCTION     0.13     0.62     7.12     0  02:29        0.62
  YS02001774           JUNCTION     0.18     0.70     7.12     0  02:28        0.69
  YS02001779           JUNCTION     0.04     0.45     7.14     0  02:29        0.45
  YS02001783           JUNCTION     0.16     0.77     6.91     0  02:29        0.77
  YS02001784           JUNCTION     0.18     0.75     6.82     0  02:29        0.75
  YS02001786           JUNCTION     0.15     0.61     6.64     0  02:29        0.61
  YS02001788           JUNCTION     0.11     0.49     6.47     0  02:29        0.49
  YS02001790           JUNCTION     0.13     0.58     6.23     0  02:29        0.58
  YS02001791           JUNCTION     0.09     0.35     5.82     0  02:29        0.35
  YS02001793           JUNCTION     0.04     0.18     5.01     0  02:29        0.18
  YS02001882           JUNCTION     0.19     0.81     7.53     0  02:28        0.81
  YS02001884           JUNCTION     0.27     0.91     7.53     0  02:28        0.91
  YS02001887           JUNCTION     0.33     0.99     7.52     0  02:29        0.99
  YS02001890           JUNCTION     0.36     1.02     7.53     0  02:29        1.01
  YS02001895           JUNCTION     0.17     0.78     7.52     0  02:29        0.77
  YS02001898           JUNCTION     0.18     0.79     7.52     0  02:28        0.79
  YS02001901           JUNCTION     0.27     0.91     7.52     0  02:28        0.91
  YS02001904           JUNCTION     0.25     0.89     7.52     0  02:28        0.88
  YS02001907           JUNCTION     0.52     1.24     7.52     0  02:28        1.22
  YS02001910           JUNCTION     0.35     1.04     7.55     0  02:27        1.01
  YS02001915           JUNCTION     0.19     0.82     7.54     0  02:28        0.81
  YS02001918           JUNCTION     0.06     0.47     7.54     0  02:29        0.47
  YS02001920           JUNCTION     0.12     0.54     7.55     0  02:29        0.52
  YS02001923           JUNCTION     0.05     0.28     7.54     0  02:29        0.27
  YS02001926           JUNCTION     0.10     0.31     7.76     0  02:26        0.31
  YS02001929           JUNCTION     0.04     0.18     7.87     0  02:26        0.18
  YS02006553           JUNCTION     0.52     1.23     7.52     0  02:28        1.21
  YS02006556           JUNCTION     0.50     1.18     7.49     0  02:28        1.17
  YS02006558           JUNCTION     0.53     1.22     7.49     0  02:28        1.20
  YS02006561           JUNCTION     0.09     0.40     7.06     0  02:28        0.40
  YS02163301           JUNCTION     0.34     1.70     8.22     0  02:26        1.34
  YS02163601           JUNCTION     0.42     1.54     7.93     0  02:26        1.31
  YS02164001           JUNCTION     0.37     1.38     7.84     0  02:26        1.19
  CC-1                 OUTFALL      0.00     0.00     0.00     0  00:00        0.00
  CC-2                 OUTFALL      0.00     0.00     0.00     0  00:00        0.00
  JK-1                 OUTFALL      0.00     0.00     0.00     0  00:00        0.00
  JK-2                 OUTFALL      0.00     0.00     0.00     0  00:00        0.00
  WSC                  OUTFALL      0.14     0.29     0.96     0  02:47        0.29
  CC-storage           STORAGE      0.61     0.94     6.44     0  02:45        0.94
  JK-storage           STORAGE      1.36     4.20     5.00     0  02:39        4.19
  
  
  *******************
  Node Inflow Summary
  *******************
  
  -------------------------------------------------------------------------------------------------
                                  Maximum  Maximum                  Lateral       Total        Flow
                                  Lateral    Total  Time of Max      Inflow      Inflow     Balance
                                   Inflow   Inflow   Occurrence      Volume      Volume       Error
  Node                 Type           LPS      LPS  days hr:min    10^6 ltr    10^6 ltr     Percent
  -------------------------------------------------------------------------------------------------
  WS02003060           JUNCTION     16.53   519.85     0  02:44       0.476        2.41       0.085
  WS02003066           JUNCTION      0.00   502.65     0  02:44           0        1.94       0.064
  WS02003067           JUNCTION      0.00   502.10     0  02:44           0        1.94       0.205
  WS02003069           JUNCTION      0.32   520.90     0  02:45     0.00922        2.42       0.142
  WS02003072           JUNCTION      0.00   519.72     0  02:45           0        2.42       0.259
  WS02003073           JUNCTION      1.82   520.24     0  02:46      0.0524        2.46       0.201
  WS02004401           JUNCTION      0.00  1786.04     0  00:00           0        2.05       0.518
  WS02004402           JUNCTION      0.00  1248.69     0  00:01           0        2.04       0.523
  WS02004403           JUNCTION      0.00   929.44     0  00:01           0        2.03       0.520
  WS02004404           JUNCTION      0.00   877.02     0  00:01           0        2.02       0.449
  WS02004405           JUNCTION      0.00   827.31     0  00:01           0        2.01       0.600
  WS02004406           JUNCTION      0.00   768.45     0  00:02           0           2       1.063
  WS02004407           JUNCTION      0.00   521.83     0  02:42           0        1.97       0.041
  WS02004409           JUNCTION      0.00   521.26     0  02:42           0        1.97       0.113
  WS02004410           JUNCTION      0.00   515.92     0  02:42           0        1.97       0.203
  WS02004411           JUNCTION      0.00   510.13     0  02:43           0        1.97       0.264
  WS02004412           JUNCTION      0.00   507.03     0  02:43           0        1.96       0.353
  WS02004413           JUNCTION      0.00   503.97     0  02:43           0        1.96       0.665
  WS02006109           JUNCTION      0.00  1446.81     0  00:00           0        1.94      -0.389
  WS02006110           JUNCTION      0.00   559.21     0  02:35           0        1.92      -2.805
  WS02006111           JUNCTION      0.00  1180.41     0  00:00           0        1.97      -2.125
  WS02006112           JUNCTION      0.00  2307.30     0  00:00           0        2.02      -0.017
  WS02006113           JUNCTION      0.00   568.39     0  02:36           0        1.94      -1.954
  WS02006115           JUNCTION      0.00   953.54     0  00:00           0        1.99      -1.791
  WS02006116           JUNCTION      0.00  1264.47     0  00:00           0        2.02      -1.157
  WS02006228           JUNCTION      0.00   869.18     0  00:00           0        1.93      -0.107
  WS02006229           JUNCTION      0.00   559.26     0  02:35           0        1.91      -0.125
  WS02006230           JUNCTION     10.28   706.67     0  00:00       0.296         1.9       0.085
  WS02006231           JUNCTION      0.00   570.01     0  02:35           0        1.59       0.014
  WS02006232           JUNCTION      0.00   567.69     0  02:35           0        1.59       0.259
  WS02006234           JUNCTION      0.00   563.76     0  02:35           0        1.58      -0.358
  WS02006235           JUNCTION      0.00   558.56     0  02:35           0        1.66       0.437
  WS02006238           JUNCTION      0.00   424.59     0  02:30           0        1.18      -0.242
  WS02006239           JUNCTION      0.00   422.91     0  02:30           0        1.13      -0.262
  WS02006240           JUNCTION      0.00   420.14     0  02:30           0         1.1      -0.127
  WS02006242           JUNCTION      0.00   420.82     0  02:30           0        1.08      -0.114
  WS02006243           JUNCTION      0.00   421.35     0  02:30           0        1.06      -0.955
  WS02006245           JUNCTION      0.00   421.45     0  02:30           0        1.07       1.282
  WS02006247           JUNCTION      0.00   420.70     0  02:30           0        1.07      -0.061
  WS02006248           JUNCTION      0.00   420.66     0  02:30           0        1.07      -0.269
  WS02006249           JUNCTION      0.00   460.74     0  02:10           0        1.11       1.881
  WS02006251           JUNCTION      0.00   407.02     0  02:29           0        1.11      -0.068
  WS02006252           JUNCTION      0.00   400.00     0  00:25           0         1.1      -1.034
  WS02006256           JUNCTION      0.00   300.00     0  00:10           0       0.655      -2.325
  WSF200               JUNCTION      0.00   502.68     0  02:44           0        1.94       0.020
  YS02001580           JUNCTION      0.00   103.16     0  02:26           0     0.00399      -2.878
  YS02001583           JUNCTION      0.00   156.16     0  02:26           0      0.0149      -4.629
  YS02001586           JUNCTION    228.19   241.49     0  02:27       0.491       0.502       0.260
  YS02001590           JUNCTION      0.00   241.77     0  02:27           0       0.489      -0.039
  YS02001593           JUNCTION      0.00   241.47     0  02:27           0       0.489       0.023
  YS02001596           JUNCTION      0.00   241.91     0  02:27           0       0.489      -0.031
  YS02001600           JUNCTION      0.00   242.20     0  02:27           0       0.489       0.009
  YS02001601           JUNCTION    425.25   655.46     0  02:27        0.71         1.2       0.075
  YS02001602           JUNCTION      0.00   523.00     0  02:25           0        1.17       0.031
  YS02001605           JUNCTION      0.00   522.55     0  02:25           0        1.17       0.034
  YS02001607           JUNCTION      0.00   522.08     0  02:25           0        1.17       0.149
  YS02001610           JUNCTION      0.00   529.10     0  02:25           0        1.17       0.182
  YS02001613           JUNCTION      0.00   536.75     0  02:25           0        1.17       0.127
  YS02001616           JUNCTION      0.00   544.43     0  02:25           0        1.17       0.033
  YS02001619           JUNCTION    391.99   910.05     0  02:25       0.738         1.9       0.004
  YS02001622           JUNCTION      0.00   909.76     0  02:26           0         1.9      -0.005
  YS02001625           JUNCTION      0.00   915.38     0  02:26           0         1.9       0.460
  YS02001629           JUNCTION      0.00   916.60     0  02:26           0        1.89       0.043
  YS02001633           JUNCTION    323.44  1214.78     0  02:26       0.516        2.41       0.137
  YS02001641           JUNCTION      0.00  1209.34     0  02:26           0        2.41       0.115
  YS02001644           JUNCTION    278.35  1482.13     0  02:26       0.423        2.82       0.113
  YS02001647           JUNCTION      0.00  1488.37     0  02:26           0        2.81       0.013
  YS02001649           JUNCTION      0.00  1760.19     0  02:28           0         3.2       0.013
  YS02001652           JUNCTION      0.00   325.06     0  02:27           0       0.385      -0.259
  YS02001655           JUNCTION      0.00   280.65     0  02:25           0       0.386       0.180
  YS02001658           JUNCTION      0.00   280.16     0  02:25           0       0.386      -0.008
  YS02001661           JUNCTION      0.00   279.39     0  02:25           0       0.386       0.089
  YS02001664           JUNCTION    279.77   279.77     0  02:25       0.386       0.386      -0.016
  YS02001745           JUNCTION    180.82   180.82     0  02:25       0.235       0.235      -0.006
  YS02001748           JUNCTION      0.00   180.60     0  02:25           0       0.235       0.002
  YS02001751           JUNCTION      0.00   181.33     0  02:25           0       0.235       0.353
  YS02001754           JUNCTION      0.00   185.46     0  02:25           0       0.234      -0.484
  YS02001757           JUNCTION      0.00  2339.50     0  02:28           0        4.28       0.043
  YS02001759           JUNCTION    259.78   510.56     0  02:30       0.338       0.844      -0.022
  YS02001762           JUNCTION      0.00   323.52     0  02:30           0       0.507       0.011
  YS02001765           JUNCTION      0.00   310.39     0  02:29           0       0.507       0.005
  YS02001767           JUNCTION      0.00   304.87     0  02:25           0       0.507       0.016
  YS02001770           JUNCTION    354.23   354.23     0  02:25       0.508       0.532      -0.030
  YS02001774           JUNCTION      0.00    48.93     0  02:28           0      0.0326       3.701
  YS02001779           JUNCTION      0.00    29.18     0  02:28           0     0.00764       0.120
  YS02001783           JUNCTION      0.00   842.10     0  02:28           0        1.46       0.003
  YS02001784           JUNCTION      0.00   842.20     0  02:28           0        1.46       0.004
  YS02001786           JUNCTION      0.00   841.66     0  02:29           0        1.46       0.015
  YS02001788           JUNCTION      0.00   841.91     0  02:29           0        1.46       0.004
  YS02001790           JUNCTION      0.00   842.69     0  02:29           0        1.46       0.007
  YS02001791           JUNCTION      0.00   891.67     0  02:29           0        1.46       0.000
  YS02001793           JUNCTION      0.00   845.88     0  02:29           0        1.46       0.003
  YS02001882           JUNCTION      0.00    20.64     0  02:24           0      0.0107       3.796
  YS02001884           JUNCTION      0.00    45.75     0  02:26           0      0.0419       4.779
  YS02001887           JUNCTION    287.12   287.12     0  02:25       0.354       0.384       0.995
  YS02001890           JUNCTION      0.00   252.26     0  02:25           0       0.348       1.274
  YS02001895           JUNCTION      0.00   236.26     0  02:25           0       0.344       0.352
  YS02001898           JUNCTION      0.00   208.22     0  02:25           0       0.343      -0.044
  YS02001901           JUNCTION      0.00   209.91     0  02:28           0       0.343       0.755
  YS02001904           JUNCTION      0.00   217.26     0  02:34           0       0.344       0.698
  YS02001907           JUNCTION      0.00   599.17     0  02:31           0        1.03       1.652
  YS02001910           JUNCTION      0.00   395.09     0  02:30           0       0.686       0.912
  YS02001915           JUNCTION    286.86   387.57     0  02:28        0.44       0.687       0.123
  YS02001918           JUNCTION      0.00   155.62     0  02:29           0       0.247      -0.010
  YS02001920           JUNCTION      0.00   151.13     0  02:30           0       0.248       0.222
  YS02001923           JUNCTION      0.00   143.55     0  02:26           0       0.248      -0.006
  YS02001926           JUNCTION      0.00   144.23     0  02:26           0       0.248       0.076
  YS02001929           JUNCTION    144.46   144.46     0  02:26       0.248       0.248      -0.015
  YS02006553           JUNCTION      0.00   599.04     0  02:31           0        1.03       1.078
  YS02006556           JUNCTION      0.00   599.87     0  02:31           0        1.04       0.740
  YS02006558           JUNCTION    352.50   843.63     0  02:28       0.479        1.49       0.204
  YS02006561           JUNCTION      0.00   842.05     0  02:28           0        1.46      -0.005
  YS02163301           JUNCTION      0.00   894.42     0  02:26           0        1.89       0.077
  YS02163601           JUNCTION      0.00  1214.13     0  02:26           0        2.41       0.205
  YS02164001           JUNCTION      0.00  1212.79     0  02:26           0         2.4       0.097
  CC-1                 OUTFALL       0.00   683.00     0  00:10           0         1.7       0.000
  CC-2                 OUTFALL       0.00   683.00     0  00:20           0        2.34       0.000
  JK-1                 OUTFALL       0.00  1000.00     0  02:30           0       0.539       0.000
  JK-2                 OUTFALL       0.00  1000.00     0  02:15           0       0.392       0.000
  WSC                  OUTFALL       0.00   518.81     0  02:47           0        2.46       0.000
  CC-storage           STORAGE       0.00  2283.03     0  02:28           0        6.51      -0.311
  JK-storage           STORAGE       0.00   845.81     0  02:29           0        1.61      -1.077
  
  
  **********************
  Node Surcharge Summary
  **********************
  
  Surcharging occurs when water rises above the top of the highest conduit.
  ---------------------------------------------------------------------
                                               Max. Height   Min. Depth
                                   Hours       Above Crown    Below Rim
  Node                 Type      Surcharged         Meters       Meters
  ---------------------------------------------------------------------
  WS02006109           JUNCTION        0.41          0.500        1.320
  WS02006110           JUNCTION        0.07          0.673        1.177
  WS02006111           JUNCTION        0.01          0.856        1.014
  WS02006112           JUNCTION        0.09          1.680        0.000
  WS02006113           JUNCTION        0.01          0.705        1.225
  WS02006115           JUNCTION        0.01          0.682        1.568
  WS02006116           JUNCTION        0.01          0.053        2.237
  WS02006228           JUNCTION        0.40          0.810        1.390
  WS02006229           JUNCTION        0.41          0.510        1.940
  WS02006230           JUNCTION        0.07          0.422        1.148
  WS02006231           JUNCTION        0.10          0.480        1.050
  WS02006232           JUNCTION        0.41          0.623        0.857
  WS02006234           JUNCTION        0.35          0.570        0.670
  WS02006235           JUNCTION        0.40          0.728        0.562
  WS02006238           JUNCTION        0.40          0.764        0.666
  WS02006239           JUNCTION        0.40          0.718        0.572
  WS02006240           JUNCTION        0.40          0.695        0.695
  WS02006242           JUNCTION        0.40          0.728        0.092
  WS02006243           JUNCTION        0.24          0.615        0.155
  WS02006245           JUNCTION        0.21          0.545        0.305
  WS02006247           JUNCTION        0.21          0.511        0.249
  WS02006248           JUNCTION        0.19          0.380        0.000
  WS02006249           JUNCTION        0.19          0.390        0.000
  WS02006251           JUNCTION        0.09          0.603        0.577
  WS02006252           JUNCTION        0.34          1.100        0.000
  WS02006256           JUNCTION        4.67          2.050        0.000
  YS02001580           JUNCTION        0.01          0.450        0.000
  YS02001583           JUNCTION        0.01          0.421        0.079
  YS02001586           JUNCTION        0.14          0.510        0.000
  YS02001590           JUNCTION        0.20          0.750        0.000
  YS02001593           JUNCTION        0.20          0.840        0.000
  YS02001596           JUNCTION        0.27          0.941        0.129
  YS02001600           JUNCTION        0.36          1.190        0.000
  YS02001601           JUNCTION        0.60          1.440        0.000
  YS02001602           JUNCTION        0.52          1.270        0.000
  YS02001605           JUNCTION        0.48          1.143        0.037
  YS02001607           JUNCTION        0.15          0.563        0.117
  YS02001610           JUNCTION        0.17          0.613        0.067
  YS02001613           JUNCTION        0.14          0.557        0.143
  YS02001616           JUNCTION        0.11          0.464        0.146
  YS02001619           JUNCTION        0.10          0.417        0.193
  YS02001622           JUNCTION        0.09          0.371        0.249
  YS02001625           JUNCTION        0.23          0.649        0.131
  YS02001629           JUNCTION        0.01          0.364        0.106
  YS02001633           JUNCTION        0.24          0.655        0.405
  YS02001641           JUNCTION        0.16          0.305        0.795
  YS02001644           JUNCTION        0.12          0.168        0.752
  YS02001907           JUNCTION        0.22          0.226        0.724
  YS02001910           JUNCTION        0.05          0.043        1.057
  YS02006553           JUNCTION        0.23          0.233        0.957
  YS02006556           JUNCTION        0.15          0.142        1.208
  YS02006558           JUNCTION        0.15          0.120        1.280
  YS02163301           JUNCTION        0.23          0.700        0.330
  YS02163601           JUNCTION        0.26          0.536        0.544
  YS02164001           JUNCTION        0.18          0.381        0.719
  
  
  *********************
  Node Flooding Summary
  *********************
  
  Flooding refers to all water that overflows a node, whether it ponds or not.
  --------------------------------------------------------------------------
                                                             Total   Maximum
                                 Maximum   Time of Max       Flood    Ponded
                        Hours       Rate    Occurrence      Volume     Depth
  Node                 Flooded       LPS   days hr:min    10^6 ltr    Meters
  --------------------------------------------------------------------------
  WS02006112              0.01   1405.86      0  00:00       0.047     0.000
  WS02006248              0.01      6.09      0  02:35       0.000     0.000
  WS02006249              0.09     96.02      0  02:29       0.022     0.000
  WS02006252              0.01      0.91      0  00:25       0.000     0.000
  WS02006256              0.61    286.50      0  03:55       0.157     0.000
  YS02001580              0.01     66.97      0  02:26       0.000     0.000
  YS02001586              0.01     71.17      0  02:26       0.001     0.000
  YS02001590              0.01     68.77      0  02:24       0.000     0.000
  YS02001593              0.01     18.18      0  02:24       0.000     0.000
  YS02001601              0.09    182.53      0  02:27       0.028     0.000
  YS02001602              0.01      6.35      0  02:26       0.000     0.000
  
  
  **********************
  Storage Volume Summary
  **********************
  
  --------------------------------------------------------------------------------------------------
                         Average     Avg  Evap Exfil       Maximum     Max    Time of Max    Maximum
                          Volume    Pcnt  Pcnt  Pcnt        Volume    Pcnt     Occurrence    Outflow
  Storage Unit           1000 m3    Full  Loss  Loss       1000 m3    Full    days hr:min        LPS
  --------------------------------------------------------------------------------------------------
  CC-storage               1.701      27     0     0         2.613      41       0  02:45    1766.00
  JK-storage               0.068      23     0     0         0.211      72       0  02:39    2000.00
  
  
  ***********************
  Outfall Loading Summary
  ***********************
  
  -----------------------------------------------------------
                         Flow       Avg       Max       Total
                         Freq      Flow      Flow      Volume
  Outfall Node           Pcnt       LPS       LPS    10^6 ltr
  -----------------------------------------------------------
  CC-1                  26.31    683.00    683.00       1.697
  CC-2                  32.01    683.00    683.00       2.344
  JK-1                   4.68   1000.00   1000.00       0.539
  JK-2                   2.38   1000.00   1000.00       0.392
  WSC                   99.99    156.63    518.81       2.458
  -----------------------------------------------------------
  System                33.07   3522.63    518.81       7.429
  
  
  ********************
  Link Flow Summary
  ********************
  
  -----------------------------------------------------------------------------
                                 Maximum  Time of Max   Maximum    Max/    Max/
                                  |Flow|   Occurrence   |Veloc|    Full    Full
  Link                 Type          LPS  days hr:min     m/sec    Flow   Depth
  -----------------------------------------------------------------------------
  1                    CONDUIT    518.81     0  02:47      2.77    0.18    0.29
  WS02003060WS02003069 CONDUIT    520.58     0  02:45      1.62    0.20    0.33
  WS02003066WSF200     CONDUIT    502.68     0  02:44      2.80    0.08    0.22
  WS02003067WS02003066 CONDUIT    502.65     0  02:44      1.16    0.16    0.41
  WS02003069WS02003072 CONDUIT    519.72     0  02:45      1.34    0.25    0.37
  WS02003072WS02003073 CONDUIT    518.42     0  02:46      1.40    1.12    0.36
  WS02004401WS02004402 CONDUIT   1248.69     0  00:01      2.52    1.50    0.85
  WS02004402WS02004403 CONDUIT    929.44     0  00:01      2.21    1.34    0.87
  WS02004403WS02004404 CONDUIT    877.02     0  00:01      2.01    0.63    0.92
  WS02004404WS02004405 CONDUIT    827.31     0  00:01      2.30    8.11    0.95
  WS02004405WS02004406 CONDUIT    768.45     0  00:02      2.19    1.52    0.95
  WS02004406WS02004407 CONDUIT    521.83     0  02:42      1.02    0.23    0.62
  WS02004407WS02004409 CONDUIT    521.26     0  02:42      2.06    0.18    0.46
  WS02004409WS02004410 CONDUIT    515.92     0  02:42      1.39    0.67    0.65
  WS02004410WS02004411 CONDUIT    510.13     0  02:43      1.32    0.70    0.66
  WS02004411WS02004412 CONDUIT    507.03     0  02:43      1.28    0.72    0.67
  WS02004412WS02004413 CONDUIT    503.97     0  02:43      1.25    0.34    0.76
  WS02004413WS02003067 CONDUIT    502.10     0  02:44      1.07    0.21    0.58
  WS02006109WS02006110 CONDUIT   1446.81     0  00:00      2.88    2.78    1.00
  WS02006110WS02006113 CONDUIT    568.39     0  02:36      1.38    0.52    1.00
  WS02006111WS02006112 CONDUIT   2307.30     0  00:00      9.18    1.10    1.00
  WS02006112WS02006115 CONDUIT    953.54     0  00:00      1.24    0.56    1.00
  WS02006113WS02006111 CONDUIT   1180.41     0  00:00      2.46    1.41    1.00
  WS02006115WS02006116 CONDUIT   1264.47     0  00:00      1.74    1.62    1.00
  WS02006116WS02004401 CONDUIT   1786.04     0  00:00      2.94    2.46    0.83
  WS02006228WS02006109 CONDUIT    869.18     0  00:00      1.91    3.80    1.00
  WS02006229WS02006228 CONDUIT    559.35     0  02:35      1.11    1.85    1.00
  WS02006230WS02006229 CONDUIT    696.39     0  00:00      1.89   15.50    1.00
  WS02006231WS02006230 CONDUIT    575.27     0  02:35      1.91    8.73    1.00
  WS02006232WS02006231 CONDUIT    570.01     0  02:35      1.80    1.19    1.00
  WS02006234WS02006232 CONDUIT    567.69     0  02:35      1.48    1.15    1.00
  WS02006235WS02006234 CONDUIT    563.76     0  02:35      1.46    5.95    1.00
  WS02006238WS02006235 CONDUIT    425.68     0  02:30      1.41    0.95    1.00
  WS02006239WS02006238 CONDUIT    424.59     0  02:30      1.10    1.36    1.00
  WS02006240WS02006239 CONDUIT    422.91     0  02:30      1.10    1.33    1.00
  WS02006242WS02006240 CONDUIT    420.14     0  02:30      1.09    1.67    1.00
  WS02006243WS02006242 CONDUIT    420.82     0  02:30      1.10    0.90    1.00
  WS02006245WS02006243 CONDUIT    421.35     0  02:30      1.33    1.25    1.00
  WS02006247WS02006245 CONDUIT    421.45     0  02:30      1.26    3.34    1.00
  WS02006248WS02006247 CONDUIT    420.70     0  02:30      1.38    0.92    1.00
  WS02006249WS02006248 CONDUIT    420.66     0  02:30      1.36    2.30    1.00
  WS02006251WS02006249 CONDUIT    460.74     0  02:10      2.13    1.33    1.00
  WS02006252WS02006251 CONDUIT    407.02     0  02:29     22.13    1.49    1.00
  WS02006256WS02006235 CONDUIT    288.88     0  00:10      4.22    3.06    1.00
  WSF200WS02003060     CONDUIT    503.32     0  02:44      2.02    0.11    0.27
  YS02001580YS02001583 CONDUIT    103.16     0  02:26      0.67    0.40    1.00
  YS02001583YS02001586 CONDUIT    141.92     0  02:26      0.65    0.21    1.00
  YS02001586YS02001590 CONDUIT    241.77     0  02:27      1.28    0.42    1.00
  YS02001590YS02001593 CONDUIT    241.47     0  02:27      1.02    1.52    1.00
  YS02001593YS02001596 CONDUIT    241.91     0  02:27      1.67    0.38    1.00
  YS02001596YS02001600 CONDUIT    242.20     0  02:27      1.18    0.47    1.00
  YS02001600YS02001601 CONDUIT    242.29     0  02:27      0.86    0.42    1.00
  YS02001601YS02001602 CONDUIT    523.00     0  02:25      1.85    1.89    1.00
  YS02001602YS02001605 CONDUIT    522.55     0  02:25      1.85   11.06    1.00
  YS02001605YS02001607 CONDUIT    522.08     0  02:25      1.85    2.86    1.00
  YS02001607YS02001610 CONDUIT    529.10     0  02:25      0.67    0.50    1.00
  YS02001610YS02001613 CONDUIT    536.75     0  02:25      0.68    0.62    1.00
  YS02001613YS02001616 CONDUIT    544.43     0  02:25      0.70    0.47    1.00
  YS02001616YS02001619 CONDUIT    520.50     0  02:25      0.71    0.90    1.00
  YS02001619YS02001622 CONDUIT    909.76     0  02:26      1.23    1.34    1.00
  YS02001622YS02001625 CONDUIT    915.38     0  02:26      1.17    0.49    1.00
  YS02001625YS02001629 CONDUIT    916.60     0  02:26      1.17    0.44    1.00
  YS02001629YS02163301 CONDUIT    894.42     0  02:26      1.14    1.10    1.00
  YS02001633YS02163601 CONDUIT   1214.13     0  02:26      1.55    1.27    1.00
  YS02001641YS02001644 CONDUIT   1210.88     0  02:26      1.54    3.91    1.00
  YS02001644YS02001647 CONDUIT   1488.37     0  02:26      2.07    0.87    0.88
  YS02001647YS02001649 CONDUIT   1516.71     0  02:26      2.32    0.80    0.78
  YS02001649YS02001757 CONDUIT   1760.19     0  02:28      2.56    1.07    0.83
  YS02001652YS02001649 CONDUIT    349.08     0  02:28      0.69    0.17    0.74
  YS02001655YS02001652 CONDUIT    325.06     0  02:27      1.36    0.16    0.48
  YS02001658YS02001655 CONDUIT    280.65     0  02:25      1.93    0.12    0.30
  YS02001661YS02001658 CONDUIT    280.16     0  02:25      2.07    0.11    0.23
  YS02001664YS02001661 CONDUIT    279.39     0  02:25      1.85    0.09    0.25
  YS02001745YS02001748 CONDUIT    180.60     0  02:25      1.90    0.07    0.18
  YS02001748YS02001751 CONDUIT    181.33     0  02:25      1.59    0.09    0.20
  YS02001751YS02001754 CONDUIT    185.46     0  02:25      1.50    0.09    0.31
  YS02001754YS02001757 CONDUIT    216.91     0  02:29      0.48    0.09    0.64
  YS02001757CaochengTiaoxuchi CONDUIT   2283.03     0  02:28      3.65    0.99    0.75
  YS02001759YS02001757 CONDUIT    513.01     0  02:30      0.87    0.36    0.76
  YS02001762YS02001759 CONDUIT    350.43     0  02:30      0.63    0.40    0.69
  YS02001765YS02001762 CONDUIT    323.52     0  02:30      0.70    0.30    0.66
  YS02001767YS02001765 CONDUIT    310.39     0  02:29      0.79    0.39    0.62
  YS02001770YS02001767 CONDUIT    304.87     0  02:25      0.80    1.21    0.62
  YS02001774YS02001770 CONDUIT     50.03     0  02:31      0.18    0.03    0.64
  YS02001779YS02001774 CONDUIT     36.36     0  02:29      0.08    0.02    0.57
  YS02001783YS02001784 CONDUIT    842.20     0  02:28      1.71    1.16    0.95
  YS02001784YS02001785 CONDUIT    841.66     0  02:29      1.84    1.96    0.85
  YS02001786YS02001788 CONDUIT    841.91     0  02:29      2.28    1.62    0.69
  YS02001788YS02001790 CONDUIT    842.69     0  02:29      2.37    0.62    0.67
  YS02001790YS02001791 CONDUIT    891.67     0  02:29      2.96    0.97    0.58
  YS02001791YS02001793 CONDUIT    845.88     0  02:29      5.95    0.36    0.33
  YS02001793JiankangQianchi CONDUIT    845.81     0  02:29      1.76    0.07    0.59
  YS02001882YS02001884 CONDUIT     20.64     0  02:24      0.10    0.02    0.83
  YS02001884YS02001887 CONDUIT     45.75     0  02:26      0.07    0.06    0.92
  YS02001887YS02001890 CONDUIT    252.26     0  02:25      0.35    0.43    0.98
  YS02001890YS02001895 CONDUIT    236.26     0  02:25      0.35    0.11    0.89
  YS02001895YS02001898 CONDUIT    208.22     0  02:25      0.42    0.36    0.76
  YS02001898YS02001901 CONDUIT    209.91     0  02:28      0.36    0.14    0.85
  YS02001901YS02001904 CONDUIT    217.26     0  02:34      0.35    0.34    0.90
  YS02001904YS02001907 CONDUIT    233.53     0  02:34      0.33    0.08    0.95
  YS02001907YS02006553 CONDUIT    599.04     0  02:31      0.67    0.70    1.00
  YS02001910YS02001907 CONDUIT    398.95     0  02:30      0.51    0.22    1.00
  YS02001915YS02001910 CONDUIT    395.09     0  02:30      0.73    0.20    0.91
  YS02001918YS02001915 CONDUIT    171.89     0  02:32      0.45    0.09    0.64
  YS02001920YS02001918 CONDUIT    155.62     0  02:29      0.64    0.15    0.50
  YS02001923YS02001920 CONDUIT    151.13     0  02:30      0.75    0.07    0.40
  YS02001926YS02001923 CONDUIT    143.55     0  02:26      0.88    0.20    0.26
  YS02001929YS02001926 CONDUIT    144.23     0  02:26      0.97    0.07    0.24
  YS02006553YS02006556 CONDUIT    599.87     0  02:31      0.76    0.51    1.00
  YS02006556YS02006558 CONDUIT    601.85     0  02:31      0.77    0.48    1.00
  YS02006558YS02006561 CONDUIT    842.05     0  02:28      3.34    1.86    0.84
  YS02006561YS02001783 CONDUIT    842.10     0  02:28      2.14    0.44    0.73
  YS02163301YS02001633 CONDUIT    896.38     0  02:26      1.14    0.84    1.00
  YS02163601YS02164001 CONDUIT   1212.79     0  02:26      1.54    1.07    1.00
  YS02164001YS02001641 CONDUIT   1209.34     0  02:26      1.54    1.65    1.00
  CC-R1                PUMP       683.00     0  00:10              1.00
  CC-R2                PUMP       683.00     0  00:20              1.00
  CC-S1                PUMP       200.00     0  00:10              1.00
  CC-S2                PUMP       200.00     0  00:15              1.00
  JK-R1                PUMP      1000.00     0  02:30              1.00
  JK-R2                PUMP      1000.00     0  02:15              1.00
  JK-S                 PUMP       300.00     0  00:10              1.00
  
  
  ***************************
  Flow Classification Summary
  ***************************
  
  -------------------------------------------------------------------------------------
                      Adjusted    ---------- Fraction of Time in Flow Class ---------- 
                       /Actual         Up    Down  Sub   Sup   Up    Down  Norm  Inlet 
  Conduit               Length    Dry  Dry   Dry   Crit  Crit  Crit  Crit  Ltd   Ctrl  
  -------------------------------------------------------------------------------------
  1                       1.00   0.00  0.00  0.00  0.00  1.00  0.00  0.00  0.56  0.00
  WS02003060WS02003069    1.00   0.00  0.00  0.00  0.94  0.06  0.00  0.00  0.88  0.00
  WS02003066WSF200        1.00   0.01  0.00  0.00  0.00  0.99  0.00  0.00  0.95  0.00
  WS02003067WS02003066    1.00   0.01  0.00  0.00  0.99  0.00  0.00  0.00  0.00  0.00
  WS02003069WS02003072    1.00   0.00  0.00  0.00  1.00  0.00  0.00  0.00  0.93  0.00
  WS02003072WS02003073    1.00   0.00  0.00  0.00  0.00  0.00  0.00  1.00  0.00  0.00
  WS02004401WS02004402    1.00   0.00  0.00  0.00  1.00  0.00  0.00  0.00  0.00  0.00
  WS02004402WS02004403    1.00   0.00  0.00  0.00  1.00  0.00  0.00  0.00  0.00  0.00
  WS02004403WS02004404    1.00   0.00  0.00  0.00  1.00  0.00  0.00  0.00  0.00  0.00
  WS02004404WS02004405    1.00   0.00  0.00  0.00  1.00  0.00  0.00  0.00  0.01  0.00
  WS02004405WS02004406    1.00   0.00  0.00  0.00  1.00  0.00  0.00  0.00  0.00  0.00
  WS02004406WS02004407    1.00   0.00  0.00  0.00  1.00  0.00  0.00  0.00  0.00  0.00
  WS02004407WS02004409    1.00   0.00  0.00  0.00  0.99  0.00  0.00  0.00  0.99  0.00
  WS02004409WS02004410    1.00   0.00  0.00  0.00  1.00  0.00  0.00  0.00  0.00  0.00
  WS02004410WS02004411    1.00   0.00  0.00  0.00  1.00  0.00  0.00  0.00  0.00  0.00
  WS02004411WS02004412    1.00   0.00  0.00  0.00  1.00  0.00  0.00  0.00  0.00  0.00
  WS02004412WS02004413    1.00   0.00  0.00  0.00  0.99  0.00  0.00  0.00  0.00  0.00
  WS02004413WS02003067    1.00   0.01  0.00  0.00  0.00  0.00  0.99  0.00  0.00  0.00
  WS02006109WS02006110    1.00   0.00  0.00  0.00  1.00  0.00  0.00  0.00  0.00  0.00
  WS02006110WS02006113    1.00   0.00  0.00  0.00  1.00  0.00  0.00  0.00  0.00  0.00
  WS02006111WS02006112    1.00   0.00  0.00  0.00  1.00  0.00  0.00  0.00  1.00  0.00
  WS02006112WS02006115    1.00   0.00  0.00  0.00  1.00  0.00  0.00  0.00  0.00  0.00
  WS02006113WS02006111    1.00   0.00  0.00  0.00  0.00  1.00  0.00  0.00  0.07  0.00
  WS02006115WS02006116    1.00   0.00  0.00  0.00  1.00  0.00  0.00  0.00  0.00  0.00
  WS02006116WS02004401    1.00   0.00  0.00  0.00  1.00  0.00  0.00  0.00  0.00  0.00
  WS02006228WS02006109    1.00   0.00  0.00  0.00  1.00  0.00  0.00  0.00  0.00  0.00
  WS02006229WS02006228    1.00   0.00  0.00  0.00  1.00  0.00  0.00  0.00  0.00  0.00
  WS02006230WS02006229    1.00   0.00  0.00  0.00  1.00  0.00  0.00  0.00  0.02  0.00
  WS02006231WS02006230    1.00   0.00  0.00  0.00  0.19  0.00  0.81  0.00  0.00  0.00
  WS02006232WS02006231    1.00   0.00  0.00  0.00  0.99  0.00  0.01  0.00  0.00  0.00
  WS02006234WS02006232    1.00   0.00  0.00  0.00  1.00  0.00  0.00  0.00  0.24  0.00
  WS02006235WS02006234    1.00   0.00  0.00  0.00  0.79  0.00  0.20  0.00  0.00  0.00
  WS02006238WS02006235    1.00   0.00  0.00  0.00  0.99  0.00  0.00  0.00  0.00  0.00
  WS02006239WS02006238    1.00   0.00  0.00  0.00  1.00  0.00  0.00  0.00  0.39  0.00
  WS02006240WS02006239    1.00   0.02  0.00  0.00  0.68  0.00  0.00  0.30  0.03  0.00
  WS02006242WS02006240    1.00   0.02  0.00  0.00  0.97  0.00  0.01  0.00  0.00  0.00
  WS02006243WS02006242    1.00   0.02  0.00  0.00  0.97  0.00  0.00  0.01  0.76  0.00
  WS02006245WS02006243    1.00   0.02  0.00  0.00  0.75  0.00  0.00  0.23  0.01  0.00
  WS02006247WS02006245    1.00   0.02  0.00  0.00  0.90  0.00  0.00  0.08  0.00  0.00
  WS02006248WS02006247    1.00   0.01  0.00  0.00  0.91  0.00  0.00  0.07  0.51  0.00
  WS02006249WS02006248    1.00   0.01  0.00  0.00  0.55  0.00  0.44  0.00  0.00  0.00
  WS02006251WS02006249    1.00   0.01  0.02  0.00  0.95  0.02  0.00  0.00  0.76  0.00
  WS02006252WS02006251    1.00   0.01  0.40  0.00  0.02  0.00  0.56  0.00  0.00  0.00
  WS02006256WS02006235    1.00   0.00  0.00  0.00  0.98  0.02  0.00  0.00  0.01  0.00
  WSF200WS02003060        1.00   0.00  0.01  0.00  0.37  0.61  0.00  0.00  0.87  0.00
  YS02001580YS02001583    1.00   0.33  0.35  0.00  0.32  0.00  0.00  0.00  0.67  0.00
  YS02001583YS02001586    1.00   0.38  0.22  0.00  0.39  0.00  0.01  0.00  0.68  0.00
  YS02001586YS02001590    1.00   0.20  0.00  0.00  0.53  0.03  0.00  0.25  0.34  0.00
  YS02001590YS02001593    1.00   0.20  0.01  0.00  0.08  0.00  0.72  0.00  0.00  0.00
  YS02001593YS02001596    1.00   0.20  0.00  0.00  0.11  0.02  0.00  0.67  0.01  0.00
  YS02001596YS02001600    1.00   0.20  0.00  0.00  0.26  0.04  0.00  0.50  0.04  0.00
  YS02001600YS02001601    1.00   0.20  0.01  0.00  0.80  0.00  0.00  0.00  0.69  0.00
  YS02001601YS02001602    1.00   0.20  0.01  0.00  0.80  0.00  0.00  0.00  0.00  0.00
  YS02001602YS02001605    1.00   0.20  0.00  0.00  0.80  0.00  0.00  0.00  0.00  0.00
  YS02001605YS02001607    1.00   0.21  0.00  0.00  0.79  0.00  0.00  0.00  0.01  0.00
  YS02001607YS02001610    1.00   0.20  0.01  0.00  0.79  0.00  0.00  0.00  0.03  0.00
  YS02001610YS02001613    1.00   0.20  0.00  0.00  0.80  0.00  0.00  0.00  0.02  0.00
  YS02001613YS02001616    1.00   0.20  0.00  0.00  0.80  0.00  0.00  0.00  0.01  0.00
  YS02001616YS02001619    1.00   0.20  0.00  0.00  0.80  0.00  0.00  0.00  0.00  0.00
  YS02001619YS02001622    1.00   0.20  0.00  0.00  0.80  0.00  0.00  0.00  0.37  0.00
  YS02001622YS02001625    1.00   0.20  0.00  0.00  0.80  0.00  0.00  0.00  0.09  0.00
  YS02001625YS02001629    1.00   0.20  0.04  0.00  0.17  0.00  0.59  0.00  0.00  0.00
  YS02001629YS02163301    1.00   0.23  0.01  0.00  0.77  0.00  0.00  0.00  0.00  0.00
  YS02001633YS02163601    1.00   0.20  0.00  0.00  0.80  0.00  0.00  0.00  0.03  0.00
  YS02001641YS02001644    1.00   0.20  0.00  0.00  0.80  0.00  0.00  0.00  0.00  0.00
  YS02001644YS02001647    1.00   0.20  0.05  0.00  0.76  0.00  0.00  0.00  0.00  0.00
  YS02001647YS02001649    1.00   0.21  0.03  0.00  0.31  0.45  0.00  0.00  0.61  0.00
  YS02001649YS02001757    1.00   0.00  0.21  0.00  0.29  0.50  0.00  0.00  0.27  0.00
  YS02001652YS02001649    1.00   0.21  0.00  0.00  0.77  0.02  0.00  0.00  0.72  0.00
  YS02001655YS02001652    1.00   0.21  0.00  0.00  0.22  0.04  0.00  0.53  0.06  0.00
  YS02001658YS02001655    1.00   0.21  0.00  0.00  0.31  0.48  0.00  0.00  0.78  0.00
  YS02001661YS02001658    1.00   0.21  0.00  0.00  0.23  0.57  0.00  0.00  0.78  0.00
  YS02001664YS02001661    1.00   0.20  0.00  0.00  0.67  0.14  0.00  0.00  0.87  0.00
  YS02001745YS02001748    1.00   0.20  0.00  0.00  0.00  0.00  0.00  0.80  0.00  0.00
  YS02001748YS02001751    1.00   0.20  0.00  0.00  0.40  0.41  0.00  0.00  0.74  0.00
  YS02001751YS02001754    1.00   0.20  0.00  0.00  0.07  0.03  0.00  0.71  0.04  0.00
  YS02001754YS02001757    1.00   0.00  0.20  0.00  0.80  0.01  0.00  0.00  0.80  0.00
  YS02001757CaochengTiaoxuchi    1.00   0.00  0.00  0.00  0.90  0.10  0.00  0.00  0.95  0.00
  YS02001759YS02001757    1.00   0.00  0.19  0.00  0.80  0.01  0.00  0.00  0.62  0.00
  YS02001762YS02001759    1.00   0.20  0.01  0.00  0.80  0.00  0.00  0.00  0.08  0.00
  YS02001765YS02001762    1.00   0.20  0.00  0.00  0.80  0.00  0.00  0.00  0.67  0.00
  YS02001767YS02001765    1.00   0.20  0.00  0.00  0.80  0.00  0.00  0.00  0.00  0.00
  YS02001770YS02001767    1.00   0.20  0.00  0.00  0.80  0.00  0.00  0.00  0.00  0.00
  YS02001774YS02001770    1.00   0.21  0.00  0.00  0.63  0.00  0.17  0.00  0.05  0.00
  YS02001779YS02001774    1.00   0.21  0.35  0.00  0.44  0.00  0.00  0.00  0.64  0.00
  YS02001783YS02001784    1.00   0.25  0.00  0.00  0.75  0.00  0.00  0.00  0.59  0.00
  YS02001784YS02001785    1.00   0.25  0.00  0.00  0.75  0.00  0.00  0.00  0.44  0.00
  YS02001786YS02001788    1.00   0.25  0.00  0.00  0.34  0.41  0.00  0.00  0.00  0.00
  YS02001788YS02001790    1.00   0.25  0.00  0.00  0.17  0.57  0.00  0.00  0.65  0.00
  YS02001790YS02001791    1.00   0.25  0.00  0.00  0.02  0.73  0.00  0.00  0.12  0.00
  YS02001791YS02001793    1.00   0.26  0.00  0.00  0.00  0.74  0.00  0.00  0.00  0.00
  YS02001793JiankangQianchi    1.00   0.00  0.26  0.00  0.74  0.00  0.00  0.00  0.75  0.00
  YS02001882YS02001884    1.00   0.23  0.01  0.00  0.76  0.00  0.00  0.00  0.00  0.00
  YS02001884YS02001887    1.00   0.21  0.01  0.00  0.78  0.00  0.00  0.00  0.00  0.00
  YS02001887YS02001890    1.00   0.19  0.01  0.00  0.79  0.00  0.01  0.00  0.00  0.00
  YS02001890YS02001895    1.00   0.20  0.04  0.00  0.76  0.00  0.00  0.00  0.00  0.00
  YS02001895YS02001898    1.00   0.24  0.00  0.00  0.75  0.00  0.01  0.00  0.00  0.00
  YS02001898YS02001901    1.00   0.24  0.00  0.00  0.76  0.00  0.00  0.00  0.01  0.00
  YS02001901YS02001904    1.00   0.24  0.00  0.00  0.75  0.00  0.00  0.00  0.00  0.00
  YS02001904YS02001907    1.00   0.20  0.05  0.00  0.75  0.00  0.00  0.00  0.00  0.00
  YS02001907YS02006553    1.00   0.20  0.01  0.00  0.79  0.00  0.00  0.00  0.01  0.00
  YS02001910YS02001907    1.00   0.20  0.00  0.00  0.79  0.00  0.00  0.02  0.06  0.00
  YS02001915YS02001910    1.00   0.20  0.00  0.00  0.79  0.02  0.00  0.00  0.07  0.00
  YS02001918YS02001915    1.00   0.20  0.03  0.00  0.77  0.00  0.00  0.00  0.76  0.00
  YS02001920YS02001918    1.00   0.21  0.02  0.00  0.77  0.00  0.00  0.00  0.00  0.00
  YS02001923YS02001920    1.00   0.21  0.00  0.00  0.79  0.00  0.00  0.00  0.82  0.00
  YS02001926YS02001923    1.00   0.20  0.01  0.00  0.00  0.00  0.79  0.00  0.00  0.00
  YS02001929YS02001926    1.00   0.20  0.00  0.00  0.80  0.00  0.00  0.00  0.87  0.00
  YS02006553YS02006556    1.00   0.21  0.00  0.00  0.79  0.00  0.00  0.00  0.03  0.00
  YS02006556YS02006558    1.00   0.19  0.01  0.00  0.80  0.00  0.00  0.00  0.00  0.00
  YS02006558YS02006561    1.00   0.25  0.00  0.00  0.00  0.75  0.00  0.00  0.15  0.00
  YS02006561YS02001783    1.00   0.25  0.00  0.00  0.16  0.59  0.00  0.00  0.71  0.00
  YS02163301YS02001633    1.00   0.20  0.03  0.00  0.77  0.00  0.00  0.00  0.00  0.00
  YS02163601YS02164001    1.00   0.20  0.01  0.00  0.79  0.00  0.00  0.00  0.02  0.00
  YS02164001YS02001641    1.00   0.20  0.01  0.00  0.79  0.00  0.00  0.00  0.00  0.00
  
  
  *************************
  Conduit Surcharge Summary
  *************************
  
  ----------------------------------------------------------------------------
                                                           Hours        Hours 
                         --------- Hours Full --------   Above Full   Capacity
  Conduit                Both Ends  Upstream  Dnstream   Normal Flow   Limited
  ----------------------------------------------------------------------------
  WS02003072WS02003073        0.01      0.01      0.01      0.23         0.01
  WS02004401WS02004402        0.01      0.01      0.01      0.01         0.01
  WS02004402WS02004403        0.01      0.01      0.01      0.02         0.01
  WS02004404WS02004405        0.01      0.01      0.01      1.56         0.01
  WS02004405WS02004406        0.01      0.01      0.01      0.05         0.01
  WS02006109WS02006110        0.07      0.07      0.42      0.09         0.01
  WS02006110WS02006113        0.01      0.01      0.41      0.01         0.01
  WS02006111WS02006112        0.01      0.01      0.54      0.01         0.01
  WS02006112WS02006115        0.01      0.01      0.08      0.01         0.01
  WS02006113WS02006111        0.01      0.01      0.01      0.01         0.01
  WS02006115WS02006116        0.01      0.01      0.01      0.01         0.01
  WS02006116WS02004401        0.01      0.01      0.01      0.02         0.01
  WS02006228WS02006109        0.40      0.41      0.41      0.75         0.40
  WS02006229WS02006228        0.40      0.41      0.40      0.51         0.39
  WS02006230WS02006229        0.44      0.49      0.46      1.97         0.44
  WS02006231WS02006230        0.07      0.07      0.11      1.62         0.01
  WS02006232WS02006231        0.10      0.10      0.41      0.12         0.01
  WS02006234WS02006232        0.40      0.40      0.41      0.11         0.11
  WS02006235WS02006234        0.35      0.35      0.39      1.32         0.01
  WS02006238WS02006235        0.40      0.40      0.41      0.01         0.01
  WS02006239WS02006238        0.40      0.41      0.40      0.19         0.17
  WS02006240WS02006239        0.40      0.40      0.40      0.18         0.17
  WS02006242WS02006240        0.40      0.40      0.41      0.30         0.01
  WS02006243WS02006242        0.25      0.25      0.40      0.01         0.01
  WS02006245WS02006243        0.21      0.21      0.24      0.13         0.12
  WS02006247WS02006245        0.21      0.21      0.21      1.09         0.20
  WS02006248WS02006247        0.20      0.20      0.21      0.01         0.01
  WS02006249WS02006248        0.19      0.19      0.19      1.03         0.01
  WS02006251WS02006249        0.19      0.19      0.19      0.26         0.17
  WS02006252WS02006251        0.31      0.31      0.33      0.31         0.01
  WS02006256WS02006235        1.42      1.44      4.60      0.62         0.01
  YS02001580YS02001583        0.01      0.01      0.02      0.01         0.01
  YS02001583YS02001586        0.01      0.01      0.14      0.01         0.01
  YS02001586YS02001590        0.15      0.15      0.20      0.01         0.01
  YS02001590YS02001593        0.20      0.20      0.21      0.20         0.01
  YS02001593YS02001596        0.21      0.21      0.27      0.01         0.01
  YS02001596YS02001600        0.31      0.31      0.36      0.01         0.01
  YS02001600YS02001601        0.40      0.40      0.60      0.01         0.01
  YS02001601YS02001602        0.52      0.52      0.64      0.37         0.01
  YS02001602YS02001605        0.48      0.48      0.52      1.42         0.01
  YS02001605YS02001607        0.45      0.48      0.45      0.57         0.45
  YS02001607YS02001610        0.15      0.15      0.17      0.01         0.01
  YS02001610YS02001613        0.14      0.14      0.17      0.01         0.01
  YS02001613YS02001616        0.11      0.11      0.14      0.01         0.01
  YS02001616YS02001619        0.10      0.10      0.11      0.01         0.01
  YS02001619YS02001622        0.09      0.10      0.09      0.22         0.09
  YS02001622YS02001625        0.09      0.09      0.23      0.01         0.01
  YS02001625YS02001629        0.01      0.01      0.23      0.01         0.01
  YS02001629YS02163301        0.22      0.22      0.23      0.13         0.11
  YS02001633YS02163601        0.24      0.24      0.26      0.16         0.16
  YS02001641YS02001644        0.12      0.16      0.12      0.68         0.12
  YS02001644YS02001647        0.01      0.01      0.12      0.01         0.01
  YS02001649YS02001757        0.01      0.01      0.01      0.02         0.01
  YS02001770YS02001767        0.01      0.01      0.01      0.13         0.01
  YS02001783YS02001784        0.01      0.01      0.01      0.17         0.01
  YS02001784YS02001785        0.01      0.01      0.01      0.31         0.01
  YS02001786YS02001788        0.01      0.01      0.01      0.25         0.01
  YS02001793JiankangQianchi        0.01      0.01      3.73      0.01         0.01
  YS02001890YS02001895        0.01      0.01      0.05      0.01         0.01
  YS02001904YS02001907        0.01      0.01      0.23      0.01         0.01
  YS02001907YS02006553        0.32      0.32      0.36      0.01         0.01
  YS02001910YS02001907        0.05      0.05      0.22      0.01         0.01
  YS02001915YS02001910        0.01      0.01      0.05      0.01         0.01
  YS02006553YS02006556        0.15      0.15      0.23      0.01         0.01
  YS02006556YS02006558        0.20      0.20      0.24      0.01         0.01
  YS02006558YS02006561        0.01      0.15      0.01      0.29         0.01
  YS02163301YS02001633        0.23      0.23      0.25      0.01         0.01
  YS02163601YS02164001        0.18      0.18      0.26      0.06         0.01
  YS02164001YS02001641        0.16      0.18      0.16      0.30         0.16
  
  
  ***************
  Pumping Summary
  ***************
  
  ---------------------------------------------------------------------------------------------------------
                                                  Min       Avg       Max     Total     Power    % Time Off
                        Percent   Number of      Flow      Flow      Flow    Volume     Usage    Pump Curve
  Pump                 Utilized   Start-Ups       LPS       LPS       LPS  10^6 ltr     Kw-hr    Low   High
  ---------------------------------------------------------------------------------------------------------
  CC-R1                    8.69          29      0.00    683.00    683.00     1.710     28.71    0.0  100.0
  CC-R2                   11.94          25      0.00    683.00    683.00     2.350     39.58    0.0  100.0
  CC-S1                    9.34          17      0.00    200.00    200.00     0.538      3.62    0.0    0.0
  CC-S2                    9.79          18      0.00    200.00    200.00     0.564      3.90    0.0    0.0
  JK-R1                    1.87          10      0.00   1000.00   1000.00     0.540      4.03    0.0    0.0
  JK-R2                    1.37           9      0.00   1000.00   1000.00     0.393      2.94    0.0    0.0
  JK-S                     7.55          20      0.00    300.00    300.00     0.652     11.75    0.0    0.0
  

  Analysis begun on:  Thu Sep  7 21:55:51 2023
  Analysis ended on:  Thu Sep  7 21:56:01 2023
  Total elapsed time: 00:00:10