
  OWA STORM WATER MANAGEMENT MODEL - VERSION v5.2.3 (OWA 2023-06-06)
  ------------------------------------------------------------

  WARNING 04: minimum elevation drop used for Conduit WS02004404WS02004405
  WARNING 03: negative offset ignored for Link YS02001904YS02001907
  
  ****************
  Analysis Options
  ****************
  Flow Units ............... LPS
  Process Models:
    Rainfall/Runoff ........ YES
    RDII ................... NO
    Snowmelt ............... NO
    Groundwater ............ NO
    Flow Routing ........... YES
    Ponding Allowed ........ NO
    Water Quality .......... NO
  Infiltration Method ...... HORTON
  Flow Routing Method ...... DYNWAVE
  Surcharge Method ......... EXTRAN
  Starting Date ............ 08/28/2015 08:00:00
  Ending Date .............. 08/28/2015 16:00:00
  Antecedent Dry Days ...... 8.0
  Report Time Step ......... 00:01:00
  Wet Time Step ............ 00:01:00
  Dry Time Step ............ 00:01:00
  Routing Time Step ........ 30.00 sec
  Variable Time Step ....... YES
  Maximum Trials ........... 8
  Number of Threads ........ 2
  Head Tolerance ........... 0.001500 m
  
  
  **************************        Volume         Depth
  Runoff Quantity Continuity     hectare-m            mm
  **************************     ---------       -------
  Initial LID Storage ......         0.049         1.488
  Total Precipitation ......         1.615        48.704
  Evaporation Loss .........         0.000         0.000
  Infiltration Loss ........         0.074         2.238
  Surface Runoff ...........         1.175        35.434
  Final Storage ............         0.416        12.533
  Continuity Error (%) .....        -0.027
  
  
  **************************        Volume        Volume
  Flow Routing Continuity        hectare-m      10^6 ltr
  **************************     ---------     ---------
  Dry Weather Inflow .......         0.025         0.251
  Wet Weather Inflow .......         1.175        11.753
  Groundwater Inflow .......         0.000         0.000
  RDII Inflow ..............         0.000         0.000
  External Inflow ..........         0.083         0.834
  External Outflow .........         1.213        12.132
  Flooding Loss ............         0.162         1.619
  Evaporation Loss .........         0.000         0.000
  Exfiltration Loss ........         0.000         0.000
  Initial Stored Volume ....         0.243         2.431
  Final Stored Volume ......         0.181         1.811
  Continuity Error (%) .....        -1.927
  
  
  *************************
  Highest Continuity Errors
  *************************
  Node YS02001884 (5.26%)
  Node YS02001583 (-5.14%)
  Node WS02006256 (-3.25%)
  Node YS02001774 (1.73%)
  Node WS02006111 (-1.32%)
  
  
  ***************************
  Time-Step Critical Elements
  ***************************
  Link WS02006252WS02006251 (28.59%)
  Link WS02004404WS02004405 (24.21%)
  Link WS02006238WS02006235 (13.97%)
  Link WS02003066WSF200 (8.26%)
  Link WS02006235WS02006234 (7.18%)
  
  
  ********************************
  Highest Flow Instability Indexes
  ********************************
  Link WS02006113WS02006111 (29)
  Link WS02006256WS02006235 (16)
  Link WS02006111WS02006112 (13)
  Link WS02006238WS02006235 (13)
  Link WS02006229WS02006228 (11)
  
  
  *********************************
  Most Frequent Nonconverging Nodes
  *********************************
  Node CC-1 (13.36%)
  Node CC-2 (13.36%)
  Node JK-1 (13.36%)
  Node JK-2 (13.36%)
  Node WSC (13.36%)
  
  
  *************************
  Routing Time Step Summary
  *************************
  Minimum Time Step           :     0.00 sec
  Average Time Step           :     2.96 sec
  Maximum Time Step           :    30.00 sec
  % of Time in Steady State   :     0.00
  Average Iterations per Step :     3.19
  % of Steps Not Converging   :    13.36
  Time Step Frequencies       :
     30.000 - 13.228 sec      :     0.01 %
     13.228 -  5.833 sec      :    20.66 %
      5.833 -  2.572 sec      :    30.48 %
      2.572 -  1.134 sec      :    15.26 %
      1.134 -  0.500 sec      :    33.59 %
  
  
  ***************************
  Subcatchment Runoff Summary
  ***************************
  
  ------------------------------------------------------------------------------------------------------------------------------
                            Total      Total      Total      Total     Imperv       Perv      Total       Total     Peak  Runoff
                           Precip      Runon       Evap      Infil     Runoff     Runoff     Runoff      Runoff   Runoff   Coeff
  Subcatchment                 mm         mm         mm         mm         mm         mm         mm    10^6 ltr      LPS
  ------------------------------------------------------------------------------------------------------------------------------
  sub60                     48.70       0.00       0.00       1.33      32.15       3.18      35.33        0.46   321.14   0.725
  sub61                     48.70       0.00       0.00       2.04      32.12       4.73      36.85        0.68   467.73   0.757
  sub62                     48.70       0.00       0.00       0.90      34.24       2.16      36.40        1.00   639.04   0.747
  sub63                     48.70       0.00       0.00       3.75      27.51       7.81      35.32        0.80   525.06   0.725
  sub64                     48.70       0.00       0.00       1.80      31.32       3.89      35.21        0.85   522.20   0.723
  sub65                     48.70       0.00       0.00       1.65      33.80       3.55      37.35        1.03   610.27   0.767
  sub66                     48.70       0.00       0.00       4.39      26.59       6.81      33.40        1.56   783.46   0.686
  sub67                     48.70       0.00       0.00       0.90      35.11       2.24      37.35        0.69   499.58   0.767
  sub68                     48.70       0.00       0.00       1.57      31.00       3.63      34.63        0.95   636.22   0.711
  sub69                     48.70       0.00       0.00       1.42      32.73       4.37      37.10        1.37   790.48   0.762
  sub70                     48.70       0.00       0.00       4.80      26.21       8.76      34.96        1.01   453.48   0.718
  sub71                     48.70       0.00       0.00       0.83      31.10       1.95      33.05        0.86   529.00   0.679
  sub72                     48.70       0.00       0.00       0.80      33.59       1.81      35.40        0.49   272.27   0.727
  

  ***********************
  LID Performance Summary
  ***********************

  --------------------------------------------------------------------------------------------------------------------
                                         Total      Evap     Infil   Surface    Drain    Initial     Final  Continuity
                                        Inflow      Loss      Loss   Outflow   Outflow   Storage   Storage       Error
  Subcatchment      LID Control             mm        mm        mm        mm        mm        mm        mm           %
  --------------------------------------------------------------------------------------------------------------------
  sub60             GreenRoof            48.70      0.00      0.00      0.00      0.00      7.05     55.78       -0.05
  sub61             GreenRoof            48.70      0.00      0.00      0.00      0.00      7.05     55.78       -0.05
  sub62             GreenRoof            48.70      0.00      0.00      0.00      0.00      7.05     55.78       -0.05
  sub63             GreenRoof            48.70      0.00      0.00      0.00      0.00      7.05     55.78       -0.05
  sub64             GreenRoof            48.70      0.00      0.00      0.00      0.00      7.05     55.78       -0.05
  sub65             GreenRoof            48.70      0.00      0.00      0.00      0.00      7.05     55.78       -0.05
  sub66             GreenRoof            48.70      0.00      0.00      0.00      0.00      7.05     55.78       -0.05
  sub67             GreenRoof            48.70      0.00      0.00      0.00      0.00      7.05     55.78       -0.05
  sub68             GreenRoof            48.70      0.00      0.00      0.00      0.00      7.05     55.78       -0.05
  sub69             GreenRoof            48.70      0.00      0.00      0.00      0.00      7.05     55.78       -0.05
  sub70             GreenRoof            48.70      0.00      0.00      0.00      0.00      7.05     55.78       -0.05
  sub71             GreenRoof            48.70      0.00      0.00      0.00      0.00      7.05     55.78       -0.05
  sub72             GreenRoof            48.70      0.00      0.00      0.00      0.00      7.05     55.78       -0.05
  
  ******************
  Node Depth Summary
  ******************
  
  ---------------------------------------------------------------------------------
                                 Average  Maximum  Maximum  Time of Max    Reported
                                   Depth    Depth      HGL   Occurrence   Max Depth
  Node                 Type       Meters   Meters   Meters  days hr:min      Meters
  ---------------------------------------------------------------------------------
  WS02003060           JUNCTION     0.18     0.38     5.31     0  02:38        0.38
  WS02003066           JUNCTION     0.15     0.30     5.85     0  02:38        0.30
  WS02003067           JUNCTION     0.42     0.70     6.02     0  02:38        0.70
  WS02003069           JUNCTION     0.19     0.43     5.01     0  02:39        0.43
  WS02003072           JUNCTION     0.25     0.50     4.87     0  02:39        0.50
  WS02003073           JUNCTION     0.14     0.30     4.36     0  02:40        0.30
  WS02004401           JUNCTION     0.52     0.85     6.85     0  02:35        0.85
  WS02004402           JUNCTION     0.55     0.88     6.84     0  02:35        0.88
  WS02004403           JUNCTION     0.58     0.89     6.82     0  02:36        0.89
  WS02004404           JUNCTION     0.66     0.96     6.81     0  02:36        0.96
  WS02004405           JUNCTION     0.65     0.96     6.81     0  02:36        0.95
  WS02004406           JUNCTION     0.67     0.96     6.79     0  02:36        0.96
  WS02004407           JUNCTION     0.13     0.30     6.61     0  02:36        0.30
  WS02004409           JUNCTION     0.30     0.66     6.43     0  02:36        0.66
  WS02004410           JUNCTION     0.33     0.68     6.40     0  02:37        0.68
  WS02004411           JUNCTION     0.35     0.69     6.37     0  02:37        0.69
  WS02004412           JUNCTION     0.38     0.70     6.34     0  02:37        0.70
  WS02004413           JUNCTION     0.54     0.86     6.33     0  02:37        0.86
  WS02006109           JUNCTION     0.56     1.20     7.82     0  02:26        1.20
  WS02006110           JUNCTION     0.57     1.29     7.87     0  02:51        1.06
  WS02006111           JUNCTION     0.14     0.90     7.60     0  00:00        0.40
  WS02006112           JUNCTION     0.66     2.68     8.56     0  00:00        1.14
  WS02006113           JUNCTION     0.21     1.40     8.29     0  00:00        0.45
  WS02006115           JUNCTION     0.39     1.65     7.79     0  00:00        0.86
  WS02006116           JUNCTION     0.48     1.06     7.10     0  00:00        0.83
  WS02006228           JUNCTION     0.54     1.13     7.79     0  02:26        1.09
  WS02006229           JUNCTION     0.51     1.16     7.86     0  02:50        1.05
  WS02006230           JUNCTION     0.49     1.35     8.10     0  02:50        1.15
  WS02006231           JUNCTION     0.32     1.12     8.24     0  02:50        0.88
  WS02006232           JUNCTION     0.44     1.60     8.64     0  03:20        1.09
  WS02006234           JUNCTION     0.35     1.93     9.09     0  03:20        1.14
  WS02006235           JUNCTION     0.39     1.89     9.05     0  03:20        1.24
  WS02006238           JUNCTION     0.41     1.91     9.06     0  03:20        1.28
  WS02006239           JUNCTION     0.37     1.83     9.03     0  03:20        1.37
  WS02006240           JUNCTION     0.34     1.70     9.00     0  03:20        1.41
  WS02006242           JUNCTION     0.39     1.55     8.82     0  03:20        1.49
  WS02006243           JUNCTION     0.32     1.38     8.80     0  03:20        1.37
  WS02006245           JUNCTION     0.32     1.29     8.78     0  03:20        1.29
  WS02006247           JUNCTION     0.34     1.25     8.75     0  03:20        1.25
  WS02006248           JUNCTION     0.31     1.10     8.69     0  02:19        1.10
  WS02006249           JUNCTION     0.34     1.09     8.69     0  02:18        1.09
  WS02006251           JUNCTION     0.34     1.39     9.06     0  02:18        1.28
  WS02006252           JUNCTION     0.25     1.50     9.74     0  02:15        0.82
  WS02006256           JUNCTION     0.89     2.35     9.28     0  00:05        2.35
  WSF200               JUNCTION     0.12     0.29     5.52     0  02:38        0.29
  YS02001580           JUNCTION     0.09     1.05     9.59     0  02:08        0.77
  YS02001583           JUNCTION     0.12     1.14     9.64     0  02:08        0.82
  YS02001586           JUNCTION     0.20     1.13     9.30     0  02:08        1.13
  YS02001590           JUNCTION     0.30     1.40     9.26     0  02:06        1.37
  YS02001593           JUNCTION     0.24     1.34     9.20     0  02:06        1.29
  YS02001596           JUNCTION     0.33     1.68     9.10     0  02:08        1.65
  YS02001600           JUNCTION     0.40     1.87     9.00     0  02:08        1.87
  YS02001601           JUNCTION     0.58     2.06     8.90     0  02:06        2.06
  YS02001602           JUNCTION     0.50     1.87     8.77     0  02:08        1.87
  YS02001605           JUNCTION     0.46     1.78     8.68     0  02:08        1.78
  YS02001607           JUNCTION     0.43     1.68     8.53     0  02:25        1.68
  YS02001610           JUNCTION     0.47     1.68     8.48     0  02:08        1.68
  YS02001613           JUNCTION     0.43     1.70     8.54     0  02:08        1.70
  YS02001616           JUNCTION     0.37     1.61     8.52     0  02:08        1.61
  YS02001619           JUNCTION     0.35     1.61     8.54     0  02:08        1.61
  YS02001622           JUNCTION     0.34     1.62     8.52     0  02:08        1.62
  YS02001625           JUNCTION     0.58     1.78     8.38     0  02:08        1.78
  YS02001629           JUNCTION     0.46     1.85     8.40     0  02:08        1.85
  YS02001633           JUNCTION     0.53     2.05     8.50     0  02:12        1.98
  YS02001641           JUNCTION     0.50     1.95     8.39     0  02:13        1.92
  YS02001644           JUNCTION     0.49     1.92     8.35     0  02:12        1.92
  YS02001647           JUNCTION     0.28     1.85     8.46     0  02:20        1.85
  YS02001649           JUNCTION     0.32     2.05     8.44     0  02:20        2.05
  YS02001652           JUNCTION     0.21     2.12     8.72     0  02:13        1.83
  YS02001655           JUNCTION     0.15     2.20     9.05     0  02:12        1.29
  YS02001658           JUNCTION     0.10     2.30     9.44     0  02:13        1.02
  YS02001661           JUNCTION     0.13     0.77     8.18     0  02:14        0.75
  YS02001664           JUNCTION     0.06     0.28     8.20     0  02:13        0.27
  YS02001745           JUNCTION     0.05     0.54     8.05     0  02:14        0.51
  YS02001748           JUNCTION     0.09     0.99     8.06     0  02:14        0.85
  YS02001751           JUNCTION     0.12     1.90     8.77     0  02:13        1.09
  YS02001754           JUNCTION     0.17     2.07     8.68     0  02:13        1.39
  YS02001757           JUNCTION     0.32     1.91     8.17     0  02:14        1.75
  YS02001759           JUNCTION     0.26     1.82     8.19     0  02:14        1.63
  YS02001762           JUNCTION     0.26     1.88     8.28     0  02:12        1.63
  YS02001765           JUNCTION     0.24     1.93     8.38     0  02:12        1.61
  YS02001767           JUNCTION     0.24     2.03     8.52     0  02:12        1.62
  YS02001770           JUNCTION     0.25     1.83     8.33     0  02:12        1.67
  YS02001774           JUNCTION     0.31     1.92     8.34     0  02:12        1.75
  YS02001779           JUNCTION     0.15     1.68     8.37     0  02:12        1.49
  YS02001783           JUNCTION     0.25     1.40     7.54     0  02:12        1.21
  YS02001784           JUNCTION     0.27     1.26     7.33     0  02:12        1.11
  YS02001786           JUNCTION     0.23     1.04     7.07     0  02:12        0.86
  YS02001788           JUNCTION     0.16     0.62     6.60     0  02:12        0.62
  YS02001790           JUNCTION     0.19     0.72     6.36     0  02:18        0.71
  YS02001791           JUNCTION     0.12     0.43     5.90     0  02:19        0.42
  YS02001793           JUNCTION     0.06     0.28     5.11     0  02:14        0.27
  YS02001882           JUNCTION     0.31     1.68     8.40     0  02:12        1.61
  YS02001884           JUNCTION     0.39     1.77     8.38     0  02:12        1.72
  YS02001887           JUNCTION     0.46     1.83     8.36     0  02:12        1.80
  YS02001890           JUNCTION     0.49     1.81     8.32     0  02:12        1.81
  YS02001895           JUNCTION     0.28     1.58     8.33     0  02:12        1.55
  YS02001898           JUNCTION     0.29     1.58     8.32     0  02:12        1.55
  YS02001901           JUNCTION     0.39     1.68     8.29     0  02:12        1.67
  YS02001904           JUNCTION     0.37     1.64     8.27     0  02:12        1.64
  YS02001907           JUNCTION     0.67     1.96     8.25     0  02:12        1.96
  YS02001910           JUNCTION     0.48     2.02     8.53     0  02:12        1.95
  YS02001915           JUNCTION     0.31     1.97     8.69     0  02:12        1.90
  YS02001918           JUNCTION     0.16     1.81     8.88     0  02:12        1.81
  YS02001920           JUNCTION     0.24     2.10     9.11     0  02:12        1.84
  YS02001923           JUNCTION     0.12     2.03     9.29     0  02:12        1.57
  YS02001926           JUNCTION     0.16     1.90     9.35     0  02:12        1.36
  YS02001929           JUNCTION     0.09     1.78     9.47     0  02:12        1.10
  YS02006553           JUNCTION     0.67     2.02     8.31     0  02:12        1.97
  YS02006556           JUNCTION     0.64     2.07     8.38     0  02:12        1.92
  YS02006558           JUNCTION     0.69     2.13     8.39     0  02:12        1.97
  YS02006561           JUNCTION     0.15     1.07     7.73     0  02:12        0.88
  YS02163301           JUNCTION     0.48     1.94     8.45     0  02:12        1.89
  YS02163601           JUNCTION     0.56     2.08     8.47     0  02:12        2.00
  YS02164001           JUNCTION     0.49     1.99     8.45     0  02:12        1.92
  CC-1                 OUTFALL      0.00     0.00     0.00     0  00:00        0.00
  CC-2                 OUTFALL      0.00     0.00     0.00     0  00:00        0.00
  JK-1                 OUTFALL      0.00     0.00     0.00     0  00:00        0.00
  JK-2                 OUTFALL      0.00     0.00     0.00     0  00:00        0.00
  WSC                  OUTFALL      0.13     0.30     0.97     0  02:40        0.30
  CC-storage           STORAGE      0.70     1.39     6.89     0  02:40        1.39
  JK-storage           STORAGE      1.57     4.21     5.01     0  02:13        4.10
  
  
  *******************
  Node Inflow Summary
  *******************
  
  -------------------------------------------------------------------------------------------------
                                  Maximum  Maximum                  Lateral       Total        Flow
                                  Lateral    Total  Time of Max      Inflow      Inflow     Balance
                                   Inflow   Inflow   Occurrence      Volume      Volume       Error
  Node                 Type           LPS      LPS  days hr:min    10^6 ltr    10^6 ltr     Percent
  -------------------------------------------------------------------------------------------------
  WS02003060           JUNCTION     16.53   550.07     0  02:38       0.476        3.37       0.069
  WS02003066           JUNCTION      0.00   533.19     0  02:38           0         2.9       0.046
  WS02003067           JUNCTION      0.00   533.12     0  02:38           0         2.9       0.142
  WS02003069           JUNCTION      0.32   549.93     0  02:39     0.00922        3.38       0.111
  WS02003072           JUNCTION      0.00   549.48     0  02:39           0        3.38       0.198
  WS02003073           JUNCTION      1.82   551.05     0  02:39      0.0524        3.42       0.162
  WS02004401           JUNCTION      0.00  1677.78     0  00:00           0        3.01       0.373
  WS02004402           JUNCTION      0.00  1171.33     0  00:01           0           3       0.367
  WS02004403           JUNCTION      0.00   884.75     0  00:01           0        2.99       0.358
  WS02004404           JUNCTION      0.16   832.59     0  00:01     0.00467        2.98       0.302
  WS02004405           JUNCTION      0.04   776.49     0  00:01      0.0011        2.97       0.412
  WS02004406           JUNCTION      0.00   711.76     0  00:02           0        2.96       0.728
  WS02004407           JUNCTION      0.00   536.63     0  02:36           0        2.94       0.032
  WS02004409           JUNCTION      0.00   536.23     0  02:36           0        2.94       0.083
  WS02004410           JUNCTION      0.00   535.10     0  02:36           0        2.94       0.145
  WS02004411           JUNCTION      0.00   534.35     0  02:37           0        2.93       0.190
  WS02004412           JUNCTION      0.00   533.77     0  02:37           0        2.93       0.247
  WS02004413           JUNCTION      0.00   533.71     0  02:37           0        2.92       0.453
  WS02006109           JUNCTION      1.23  1308.01     0  00:00      0.0354        2.94       0.277
  WS02006110           JUNCTION      0.00   559.98     0  02:51           0        2.91      -1.250
  WS02006111           JUNCTION      0.00  1176.04     0  00:00           0        2.94      -1.302
  WS02006112           JUNCTION      0.00  2307.30     0  00:00           0        2.98      -0.024
  WS02006113           JUNCTION      0.00   569.67     0  02:51           0         2.9      -1.701
  WS02006115           JUNCTION      0.00   899.27     0  00:00           0        2.95      -1.093
  WS02006116           JUNCTION      0.00  1098.16     0  00:01           0        2.99      -0.780
  WS02006228           JUNCTION      0.00   558.20     0  02:51           0        2.88       0.149
  WS02006229           JUNCTION      0.00   557.62     0  02:51           0        2.87       0.322
  WS02006230           JUNCTION     10.28   589.64     0  02:50       0.296        2.86       0.084
  WS02006231           JUNCTION      0.00   583.02     0  02:50           0        2.55      -0.083
  WS02006232           JUNCTION      0.00   581.75     0  02:50           0        2.55       0.235
  WS02006234           JUNCTION      0.00   574.25     0  02:50           0        2.54      -0.413
  WS02006235           JUNCTION      0.00   562.91     0  02:50           0        2.64       0.407
  WS02006238           JUNCTION      0.00   425.51     0  02:35           0        2.11      -0.243
  WS02006239           JUNCTION      0.00   424.78     0  02:35           0        2.05      -0.057
  WS02006240           JUNCTION      0.00   420.82     0  02:35           0           2      -0.112
  WS02006242           JUNCTION      0.00   420.09     0  02:35           0        1.99      -0.077
  WS02006243           JUNCTION      0.00   420.68     0  02:35           0        1.97      -0.463
  WS02006245           JUNCTION      0.00   421.25     0  02:35           0        1.98       0.606
  WS02006247           JUNCTION      0.00   422.42     0  02:35           0        1.98       0.001
  WS02006248           JUNCTION      0.00   423.77     0  02:35           0        1.98      -0.011
  WS02006249           JUNCTION      0.00   477.42     0  02:00           0        2.08       0.689
  WS02006251           JUNCTION      0.08   405.22     0  02:40     0.00222        2.08       0.001
  WS02006252           JUNCTION      0.00   400.00     0  01:10           0        2.07      -0.441
  WS02006256           JUNCTION      0.00   300.00     0  00:05           0       0.757      -3.146
  WSF200               JUNCTION      0.00   533.28     0  02:38           0         2.9       0.014
  YS02001580           JUNCTION      0.00   135.80     0  02:08           0     0.00435       1.057
  YS02001583           JUNCTION      0.00   177.12     0  02:08           0      0.0154      -4.892
  YS02001586           JUNCTION    453.48   453.52     0  02:15        1.01        1.02       0.113
  YS02001590           JUNCTION      0.00   317.98     0  02:19           0       0.942      -0.051
  YS02001593           JUNCTION      0.00   318.07     0  02:19           0       0.942      -0.007
  YS02001596           JUNCTION      0.00   317.96     0  02:19           0       0.942      -0.007
  YS02001600           JUNCTION      0.00   317.93     0  02:17           0       0.942       0.006
  YS02001601           JUNCTION    790.48  1108.00     0  02:14        1.37        2.32       0.028
  YS02001602           JUNCTION      0.00   517.93     0  02:08           0        1.75       0.028
  YS02001605           JUNCTION      0.00   518.01     0  02:08           0         1.7       0.028
  YS02001607           JUNCTION      0.00   517.95     0  02:08           0         1.7       0.097
  YS02001610           JUNCTION      0.00   525.15     0  02:07           0         1.7       0.114
  YS02001613           JUNCTION      0.00   527.37     0  02:07           0        1.55       0.090
  YS02001616           JUNCTION      0.00   529.12     0  02:07           0        1.55       0.013
  YS02001619           JUNCTION    783.46   936.73     0  02:10        1.56         3.1      -0.008
  YS02001622           JUNCTION      0.00   935.74     0  02:10           0         3.1      -0.004
  YS02001625           JUNCTION      0.00   935.96     0  02:10           0         3.1       0.279
  YS02001629           JUNCTION      0.00   935.89     0  02:10           0        2.86       0.015
  YS02001633           JUNCTION    610.47  1419.40     0  02:11        1.03         3.9       0.085
  YS02001641           JUNCTION      0.00  1414.11     0  02:11           0         3.9       0.067
  YS02001644           JUNCTION    522.23  1834.54     0  02:11       0.847        4.74       0.064
  YS02001647           JUNCTION      0.00  1837.15     0  02:11           0        4.73       0.005
  YS02001649           JUNCTION      0.00  2115.73     0  02:11           0        5.53      -0.002
  YS02001652           JUNCTION      0.00   582.68     0  02:15           0       0.806      -0.139
  YS02001655           JUNCTION      0.15   583.77     0  02:15     0.00443       0.806      -0.011
  YS02001658           JUNCTION      0.00   717.68     0  02:13           0       0.802      -0.069
  YS02001661           JUNCTION      0.00   534.19     0  02:13           0       0.802       0.045
  YS02001664           JUNCTION    525.06   525.06     0  02:13       0.802       0.802      -0.011
  YS02001745           JUNCTION    321.14   321.14     0  02:13       0.464       0.464       0.294
  YS02001748           JUNCTION      0.04   547.32     0  02:15      0.0013       0.464      -0.379
  YS02001751           JUNCTION      0.01   428.74     0  02:12    0.000317       0.471       0.059
  YS02001754           JUNCTION      0.26   378.31     0  02:14     0.00749       0.482      -0.252
  YS02001757           JUNCTION      0.00  3258.40     0  02:14           0        7.71       0.068
  YS02001759           JUNCTION    467.77  1128.15     0  02:13       0.677        1.69      -0.013
  YS02001762           JUNCTION      0.00   661.02     0  02:13           0        1.01      -0.023
  YS02001765           JUNCTION      0.00   658.09     0  02:13           0        1.01      -0.001
  YS02001767           JUNCTION      0.54   655.10     0  02:13      0.0154        1.01      -0.005
  YS02001770           JUNCTION    639.19   647.92     0  02:13           1        1.04      -0.015
  YS02001774           JUNCTION      0.00   328.00     0  02:12           0      0.0605       1.761
  YS02001779           JUNCTION      0.01   329.53     0  02:12    0.000144      0.0187      -2.271
  YS02001783           JUNCTION      0.00  1152.23     0  02:13           0        2.82       0.009
  YS02001784           JUNCTION      1.06  1153.27     0  02:13      0.0305        2.86       0.018
  YS02001786           JUNCTION      0.06  1153.45     0  02:13     0.00162        2.86       0.022
  YS02001788           JUNCTION      0.07  1154.87     0  02:13     0.00204        2.86       0.011
  YS02001790           JUNCTION      0.15  1169.93     0  02:12     0.00446        2.86       0.018
  YS02001791           JUNCTION      0.00  1273.86     0  02:18           0        2.86      -0.011
  YS02001793           JUNCTION      0.00  1216.25     0  02:20           0        2.86       0.008
  YS02001882           JUNCTION      0.00    61.99     0  02:10           0      0.0122       5.310
  YS02001884           JUNCTION      0.00    78.69     0  02:10           0      0.0478       5.551
  YS02001887           JUNCTION    500.03   500.40     0  02:13       0.708       0.741       0.606
  YS02001890           JUNCTION      0.00   500.30     0  02:13           0         0.7       0.721
  YS02001895           JUNCTION      0.00   493.03     0  02:13           0       0.694       0.194
  YS02001898           JUNCTION      0.00   492.97     0  02:13           0       0.692       0.048
  YS02001901           JUNCTION      0.00   492.96     0  02:13           0       0.695       0.468
  YS02001904           JUNCTION      0.00   493.45     0  02:13           0       0.699       0.406
  YS02001907           JUNCTION      0.00  1466.30     0  02:13           0        2.12       0.821
  YS02001910           JUNCTION      0.00   977.44     0  02:13           0        1.43       0.493
  YS02001915           JUNCTION    529.02   977.20     0  02:13       0.865        1.47       0.108
  YS02001918           JUNCTION      0.00   451.47     0  02:13           0       0.636       0.015
  YS02001920           JUNCTION      2.87   451.25     0  02:13      0.0827        0.62       0.171
  YS02001923           JUNCTION      0.04   417.98     0  02:12     0.00109       0.522      -0.102
  YS02001926           JUNCTION      0.05   654.63     0  02:12      0.0015       0.502      -0.031
  YS02001929           JUNCTION    272.27   455.73     0  02:12       0.487       0.489       0.005
  YS02006553           JUNCTION      0.00   797.24     0  02:22           0        1.89       0.628
  YS02006556           JUNCTION      0.00   798.00     0  02:23           0         1.9       0.423
  YS02006558           JUNCTION    637.10  1175.07     0  02:12       0.978        2.85       0.121
  YS02006561           JUNCTION      0.00  1175.07     0  02:12           0        2.82       0.000
  YS02163301           JUNCTION      0.00   937.63     0  02:10           0        2.86       0.049
  YS02163601           JUNCTION      0.11  1417.94     0  02:11     0.00317        3.89       0.124
  YS02164001           JUNCTION      0.00  1416.63     0  02:11           0        3.89       0.056
  CC-1                 OUTFALL       0.00   683.00     0  00:05           0        3.38       0.000
  CC-2                 OUTFALL       0.00   683.00     0  00:05           0        3.12       0.000
  JK-1                 OUTFALL       0.00  1000.00     0  01:45           0        1.44       0.000
  JK-2                 OUTFALL       0.00  1000.00     0  01:50           0       0.779       0.000
  WSC                  OUTFALL       0.00   550.51     0  02:40           0        3.42       0.000
  CC-storage           STORAGE       0.00  3258.98     0  02:14           0        9.93      -0.309
  JK-storage           STORAGE       0.00  1228.08     0  02:19           0        3.01      -0.513
  
  
  **********************
  Node Surcharge Summary
  **********************
  
  Surcharging occurs when water rises above the top of the highest conduit.
  ---------------------------------------------------------------------
                                               Max. Height   Min. Depth
                                   Hours       Above Crown    Below Rim
  Node                 Type      Surcharged         Meters       Meters
  ---------------------------------------------------------------------
  WS02006109           JUNCTION        1.06          0.383        1.437
  WS02006110           JUNCTION        0.27          0.377        1.473
  WS02006111           JUNCTION        0.01          0.087        1.783
  WS02006112           JUNCTION        0.30          1.680        0.000
  WS02006113           JUNCTION        0.01          0.600        1.330
  WS02006115           JUNCTION        0.01          0.642        1.608
  WS02006116           JUNCTION        0.01          0.000        2.290
  WS02006228           JUNCTION        1.06          0.305        1.895
  WS02006229           JUNCTION        1.06          0.365        2.085
  WS02006230           JUNCTION        0.29          0.275        1.295
  WS02006231           JUNCTION        0.34          0.408        1.122
  WS02006232           JUNCTION        1.09          0.900        0.580
  WS02006234           JUNCTION        0.52          1.210        0.030
  WS02006235           JUNCTION        1.05          1.176        0.114
  WS02006238           JUNCTION        1.07          1.194        0.236
  WS02006239           JUNCTION        1.05          1.085        0.205
  WS02006240           JUNCTION        1.06          0.993        0.397
  WS02006242           JUNCTION        1.07          0.820        0.000
  WS02006243           JUNCTION        1.05          0.671        0.099
  WS02006245           JUNCTION        1.04          0.584        0.266
  WS02006247           JUNCTION        1.04          0.539        0.221
  WS02006248           JUNCTION        1.03          0.380        0.000
  WS02006249           JUNCTION        1.03          0.390        0.000
  WS02006251           JUNCTION        0.36          0.357        0.823
  WS02006252           JUNCTION        1.20          1.100        0.000
  WS02006256           JUNCTION        5.48          2.050        0.000
  YS02001580           JUNCTION        0.34          0.450        0.000
  YS02001583           JUNCTION        0.34          0.500        0.000
  YS02001586           JUNCTION        0.44          0.510        0.000
  YS02001590           JUNCTION        0.50          0.750        0.000
  YS02001593           JUNCTION        0.50          0.715        0.125
  YS02001596           JUNCTION        0.60          0.949        0.121
  YS02001600           JUNCTION        0.72          1.190        0.000
  YS02001601           JUNCTION        1.07          1.440        0.000
  YS02001602           JUNCTION        0.94          1.270        0.000
  YS02001605           JUNCTION        0.89          1.180        0.000
  YS02001607           JUNCTION        0.46          0.680        0.000
  YS02001610           JUNCTION        0.48          0.680        0.000
  YS02001613           JUNCTION        0.45          0.700        0.000
  YS02001616           JUNCTION        0.41          0.610        0.000
  YS02001619           JUNCTION        0.40          0.610        0.000
  YS02001622           JUNCTION        0.40          0.620        0.000
  YS02001625           JUNCTION        0.55          0.780        0.000
  YS02001629           JUNCTION        0.35          0.470        0.000
  YS02001633           JUNCTION        0.56          1.026        0.034
  YS02001641           JUNCTION        0.49          0.952        0.148
  YS02001644           JUNCTION        0.45          0.920        0.000
  YS02001647           JUNCTION        0.27          0.850        0.050
  YS02001649           JUNCTION        0.34          1.050        0.000
  YS02001652           JUNCTION        0.21          1.093        0.037
  YS02001655           JUNCTION        0.11          1.200        0.000
  YS02001658           JUNCTION        0.01          1.300        0.000
  YS02001751           JUNCTION        0.03          0.896        0.304
  YS02001754           JUNCTION        0.13          1.018        0.132
  YS02001757           JUNCTION        0.36          0.912        0.298
  YS02001759           JUNCTION        0.29          0.822        0.388
  YS02001762           JUNCTION        0.27          0.880        0.270
  YS02001765           JUNCTION        0.24          0.932        0.168
  YS02001767           JUNCTION        0.23          1.030        0.000
  YS02001770           JUNCTION        0.21          0.802        0.118
  YS02001774           JUNCTION        0.26          0.917        0.133
  YS02001779           JUNCTION        0.14          0.680        0.000
  YS02001783           JUNCTION        0.31          0.602        0.998
  YS02001784           JUNCTION        0.29          0.459        1.031
  YS02001786           JUNCTION        0.20          0.242        1.188
  YS02001882           JUNCTION        0.27          0.680        0.150
  YS02001884           JUNCTION        0.27          0.707        0.163
  YS02001887           JUNCTION        0.30          0.776        0.174
  YS02001890           JUNCTION        0.31          0.760        0.000
  YS02001895           JUNCTION        0.26          0.579        0.171
  YS02001898           JUNCTION        0.25          0.552        0.188
  YS02001901           JUNCTION        0.29          0.682        0.188
  YS02001904           JUNCTION        0.28          0.643        0.207
  YS02001907           JUNCTION        0.49          0.950        0.000
  YS02001910           JUNCTION        0.33          1.021        0.079
  YS02001915           JUNCTION        0.26          0.972        0.028
  YS02001918           JUNCTION        0.19          0.810        0.000
  YS02001920           JUNCTION        0.20          1.101        0.039
  YS02001923           JUNCTION        0.01          0.820        0.000
  YS02001926           JUNCTION        0.01          0.900        0.000
  YS02001929           JUNCTION        0.01          0.780        0.000
  YS02006553           JUNCTION        0.51          1.025        0.165
  YS02006556           JUNCTION        0.41          1.027        0.323
  YS02006558           JUNCTION        0.40          1.025        0.375
  YS02006561           JUNCTION        0.16          0.273        0.877
  YS02163301           JUNCTION        0.55          0.937        0.093
  YS02163601           JUNCTION        0.59          1.076        0.004
  YS02164001           JUNCTION        0.50          0.988        0.112
  
  
  *********************
  Node Flooding Summary
  *********************
  
  Flooding refers to all water that overflows a node, whether it ponds or not.
  --------------------------------------------------------------------------
                                                             Total   Maximum
                                 Maximum   Time of Max       Flood    Ponded
                        Hours       Rate    Occurrence      Volume     Depth
  Node                 Flooded       LPS   days hr:min    10^6 ltr    Meters
  --------------------------------------------------------------------------
  WS02006112              0.01   1547.89      0  00:00       0.047     0.000
  WS02006242              0.01      9.73      0  03:20       0.000     0.000
  WS02006248              0.01      5.16      0  02:25       0.000     0.000
  WS02006249              0.35    110.39      0  02:19       0.084     0.000
  WS02006252              0.01      0.91      0  02:15       0.000     0.000
  WS02006256              0.70    284.70      0  03:25       0.212     0.000
  YS02001580              0.01    120.20      0  02:08       0.000     0.000
  YS02001583              0.01    112.36      0  02:08       0.000     0.000
  YS02001586              0.24    136.00      0  02:15       0.067     0.000
  YS02001590              0.01     28.58      0  02:06       0.000     0.000
  YS02001600              0.01      0.74      0  02:08       0.000     0.000
  YS02001601              0.38    710.09      0  02:14       0.561     0.000
  YS02001602              0.28     61.97      0  02:15       0.053     0.000
  YS02001605              0.01      4.57      0  02:08       0.000     0.000
  YS02001607              0.01      0.49      0  02:25       0.000     0.000
  YS02001610              0.23    281.24      0  02:15       0.150     0.000
  YS02001613              0.01     17.41      0  02:08       0.000     0.000
  YS02001616              0.01     23.19      0  02:08       0.000     0.000
  YS02001619              0.01     30.78      0  02:08       0.000     0.000
  YS02001622              0.01     82.04      0  02:08       0.000     0.000
  YS02001625              0.20    669.33      0  02:15       0.232     0.000
  YS02001629              0.02    158.31      0  02:08       0.001     0.000
  YS02001644              0.01     35.09      0  02:13       0.000     0.000
  YS02001649              0.01     23.19      0  02:20       0.000     0.000
  YS02001655              0.01    146.66      0  02:12       0.000     0.000
  YS02001658              0.01    314.06      0  02:13       0.000     0.000
  YS02001767              0.01    114.08      0  02:12       0.000     0.000
  YS02001779              0.01    302.74      0  02:12       0.002     0.000
  YS02001890              0.02     34.84      0  02:12       0.001     0.000
  YS02001907              0.14    950.79      0  02:13       0.222     0.000
  YS02001918              0.01    167.86      0  02:12       0.002     0.000
  YS02001923              0.01    306.72      0  02:12       0.001     0.000
  YS02001926              0.01    556.41      0  02:12       0.001     0.000
  YS02001929              0.01    160.68      0  02:12       0.001     0.000
  
  
  **********************
  Storage Volume Summary
  **********************
  
  ------------------------------------------------------------------------------------------------
                         Average    Avg   Evap  Exfil     Maximum    Max    Time of Max    Maximum
                          Volume   Pcnt   Pcnt   Pcnt      Volume   Pcnt     Occurrence    Outflow
  Storage Unit           1000 m³   Full   Loss   Loss     1000 m³   Full    days hr:min        LPS
  ------------------------------------------------------------------------------------------------
  CC-storage               1.957   30.5    0.0    0.0       3.875   60.4       0  02:40    1766.00
  JK-storage               0.079   27.0    0.0    0.0       0.212   72.6       0  02:13    2300.00
  
  
  ***********************
  Outfall Loading Summary
  ***********************
  
  -----------------------------------------------------------
                         Flow       Avg       Max       Total
                         Freq      Flow      Flow      Volume
  Outfall Node           Pcnt       LPS       LPS    10^6 ltr
  -----------------------------------------------------------
  CC-1                  33.72    683.00    683.00       3.378
  CC-2                  32.15    683.00    683.00       3.116
  JK-1                   9.65   1000.00   1000.00       1.441
  JK-2                   7.91   1000.00   1000.00       0.779
  WSC                   99.99    156.84    550.51       3.418
  -----------------------------------------------------------
  System                36.69   3522.84   3916.51      12.132
  
  
  ********************
  Link Flow Summary
  ********************
  
  -----------------------------------------------------------------------------
                                 Maximum  Time of Max   Maximum    Max/    Max/
                                  |Flow|   Occurrence   |Veloc|    Full    Full
  Link                 Type          LPS  days hr:min     m/sec    Flow   Depth
  -----------------------------------------------------------------------------
  1                    CONDUIT    550.51     0  02:40      2.82    0.19    0.30
  WS02003060WS02003069 CONDUIT    549.61     0  02:39      1.64    0.22    0.34
  WS02003066WSF200     CONDUIT    533.28     0  02:38      2.85    0.09    0.22
  WS02003067WS02003066 CONDUIT    533.19     0  02:38      1.20    0.17    0.41
  WS02003069WS02003072 CONDUIT    549.48     0  02:39      1.37    0.26    0.39
  WS02003072WS02003073 CONDUIT    549.22     0  02:39      1.43    1.19    0.37
  WS02004401WS02004402 CONDUIT   1171.33     0  00:01      2.51    1.41    0.86
  WS02004402WS02004403 CONDUIT    884.75     0  00:01      2.16    1.27    0.88
  WS02004403WS02004404 CONDUIT    832.43     0  00:01      1.96    0.60    0.93
  WS02004404WS02004405 CONDUIT    776.45     0  00:01      2.26    7.61    0.96
  WS02004405WS02004406 CONDUIT    711.76     0  00:02      2.15    1.40    0.96
  WS02004406WS02004407 CONDUIT    536.63     0  02:36      1.04    0.24    0.63
  WS02004407WS02004409 CONDUIT    536.23     0  02:36      1.95    0.19    0.48
  WS02004409WS02004410 CONDUIT    535.10     0  02:36      1.31    0.69    0.67
  WS02004410WS02004411 CONDUIT    534.35     0  02:37      1.19    0.73    0.68
  WS02004411WS02004412 CONDUIT    533.77     0  02:37      1.09    0.76    0.69
  WS02004412WS02004413 CONDUIT    533.71     0  02:37      1.11    0.36    0.78
  WS02004413WS02003067 CONDUIT    533.12     0  02:38      1.11    0.23    0.59
  WS02006109WS02006110 CONDUIT   1306.78     0  00:00      3.14    2.51    1.00
  WS02006110WS02006113 CONDUIT    569.67     0  02:51      1.38    0.52    1.00
  WS02006111WS02006112 CONDUIT   2307.30     0  00:00      9.18    1.10    0.91
  WS02006112WS02006115 CONDUIT    899.27     0  00:00      1.16    0.53    1.00
  WS02006113WS02006111 CONDUIT   1176.04     0  00:00      2.46    1.41    1.00
  WS02006115WS02006116 CONDUIT   1098.16     0  00:01      1.72    1.41    1.00
  WS02006116WS02004401 CONDUIT   1677.78     0  00:00      2.92    2.31    0.84
  WS02006228WS02006109 CONDUIT    557.90     0  02:51      1.40    2.44    1.00
  WS02006229WS02006228 CONDUIT    558.20     0  02:51      1.24    1.85    1.00
  WS02006230WS02006229 CONDUIT    557.62     0  02:51      1.45   12.41    1.00
  WS02006231WS02006230 CONDUIT    579.36     0  02:50      1.58    8.79    1.00
  WS02006232WS02006231 CONDUIT    583.02     0  02:50      1.52    1.22    1.00
  WS02006234WS02006232 CONDUIT    581.75     0  02:50      1.51    1.18    1.00
  WS02006235WS02006234 CONDUIT    574.25     0  02:50      1.49    6.06    1.00
  WS02006238WS02006235 CONDUIT    426.49     0  02:35      1.52    0.95    1.00
  WS02006239WS02006238 CONDUIT    425.51     0  02:35      1.11    1.36    1.00
  WS02006240WS02006239 CONDUIT    424.78     0  02:35      1.19    1.34    1.00
  WS02006242WS02006240 CONDUIT    420.82     0  02:35      1.09    1.67    1.00
  WS02006243WS02006242 CONDUIT    420.09     0  02:35      1.31    0.90    1.00
  WS02006245WS02006243 CONDUIT    420.68     0  02:35      1.35    1.24    1.00
  WS02006247WS02006245 CONDUIT    421.25     0  02:35      1.39    3.34    1.00
  WS02006248WS02006247 CONDUIT    422.42     0  02:35      1.42    0.92    1.00
  WS02006249WS02006248 CONDUIT    423.77     0  02:35      1.40    2.32    1.00
  WS02006251WS02006249 CONDUIT    477.42     0  02:00      1.80    1.38    1.00
  WS02006252WS02006251 CONDUIT    405.14     0  02:40     20.60    1.49    1.00
  WS02006256WS02006235 CONDUIT    289.26     0  00:05      4.25    3.06    1.00
  WSF200WS02003060     CONDUIT    533.54     0  02:38      2.06    0.12    0.28
  YS02001580YS02001583 CONDUIT    135.80     0  02:08      0.70    0.53    1.00
  YS02001583YS02001586 CONDUIT    164.04     0  02:08      0.71    0.25    1.00
  YS02001586YS02001590 CONDUIT    317.98     0  02:19      1.27    0.56    1.00
  YS02001590YS02001593 CONDUIT    318.07     0  02:19      1.12    2.00    1.00
  YS02001593YS02001596 CONDUIT    317.96     0  02:19      1.74    0.50    1.00
  YS02001596YS02001600 CONDUIT    317.93     0  02:17      1.22    0.62    1.00
  YS02001600YS02001601 CONDUIT    318.08     0  02:19      1.12    0.55    1.00
  YS02001601YS02001602 CONDUIT    517.93     0  02:08      1.83    1.87    1.00
  YS02001602YS02001605 CONDUIT    518.01     0  02:08      1.83   10.96    1.00
  YS02001605YS02001607 CONDUIT    517.95     0  02:08      1.83    2.84    1.00
  YS02001607YS02001610 CONDUIT    525.15     0  02:07      0.67    0.50    1.00
  YS02001610YS02001613 CONDUIT    527.37     0  02:07      0.67    0.61    1.00
  YS02001613YS02001616 CONDUIT    529.12     0  02:07      0.68    0.45    1.00
  YS02001616YS02001619 CONDUIT    493.25     0  02:31      0.68    0.86    1.00
  YS02001619YS02001622 CONDUIT    935.74     0  02:10      1.19    1.38    1.00
  YS02001622YS02001625 CONDUIT    935.96     0  02:10      1.19    0.50    1.00
  YS02001625YS02001629 CONDUIT    935.89     0  02:10      1.20    0.45    1.00
  YS02001629YS02163301 CONDUIT    937.63     0  02:10      1.19    1.15    1.00
  YS02001633YS02163601 CONDUIT   1417.83     0  02:11      1.81    1.49    1.00
  YS02001641YS02001644 CONDUIT   1414.64     0  02:11      1.80    4.57    1.00
  YS02001644YS02001647 CONDUIT   1837.15     0  02:11      2.35    1.08    1.00
  YS02001647YS02001649 CONDUIT   1856.87     0  02:11      2.39    0.98    1.00
  YS02001649YS02001757 CONDUIT   2122.41     0  02:11      2.71    1.29    1.00
  YS02001652YS02001649 CONDUIT    582.51     0  02:15      0.76    0.29    1.00
  YS02001655YS02001652 CONDUIT    582.68     0  02:15      1.30    0.28    1.00
  YS02001658YS02001655 CONDUIT    583.62     0  02:15      1.93    0.25    1.00
  YS02001661YS02001658 CONDUIT    717.68     0  02:13      2.37    0.28    0.85
  YS02001664YS02001661 CONDUIT    534.19     0  02:13      2.36    0.17    0.52
  YS02001745YS02001748 CONDUIT    547.28     0  02:15      2.20    0.21    0.63
  YS02001748YS02001751 CONDUIT    428.20     0  02:15      1.73    0.22    0.99
  YS02001751YS02001754 CONDUIT    378.05     0  02:14      1.43    0.18    1.00
  YS02001754YS02001757 CONDUIT    378.40     0  02:14      0.48    0.15    1.00
  YS02001757CaochengTiaoxuchi CONDUIT   3258.98     0  02:14      4.18    1.41    1.00
  YS02001759YS02001757 CONDUIT   1127.61     0  02:13      1.44    0.80    1.00
  YS02001762YS02001759 CONDUIT    661.58     0  02:13      0.84    0.76    1.00
  YS02001765YS02001762 CONDUIT    661.02     0  02:13      0.84    0.62    1.00
  YS02001767YS02001765 CONDUIT    658.09     0  02:13      0.84    0.83    1.00
  YS02001770YS02001767 CONDUIT    654.56     0  02:13      0.83    2.59    1.00
  YS02001774YS02001770 CONDUIT    328.00     0  02:12      0.42    0.21    1.00
  YS02001779YS02001774 CONDUIT    329.53     0  02:12      0.42    0.17    1.00
  YS02001783YS02001784 CONDUIT   1152.21     0  02:13      2.29    1.59    1.00
  YS02001784YS02001785 CONDUIT   1153.40     0  02:13      2.29    2.68    1.00
  YS02001786YS02001788 CONDUIT   1154.80     0  02:13      2.47    2.23    0.89
  YS02001788YS02001790 CONDUIT   1169.77     0  02:12      2.71    0.86    0.83
  YS02001790YS02001791 CONDUIT   1273.86     0  02:18      3.42    1.39    0.70
  YS02001791YS02001793 CONDUIT   1216.25     0  02:20      6.62    0.52    0.43
  YS02001793JiankangQianchi CONDUIT   1228.08     0  02:19      2.46    0.10    0.64
  YS02001882YS02001884 CONDUIT     61.99     0  02:10      0.10    0.07    1.00
  YS02001884YS02001887 CONDUIT     78.69     0  02:10      0.10    0.10    1.00
  YS02001887YS02001890 CONDUIT    500.30     0  02:13      0.64    0.86    1.00
  YS02001890YS02001895 CONDUIT    493.03     0  02:13      0.63    0.23    1.00
  YS02001895YS02001898 CONDUIT    492.97     0  02:13      0.63    0.86    1.00
  YS02001898YS02001901 CONDUIT    492.96     0  02:13      0.63    0.32    1.00
  YS02001901YS02001904 CONDUIT    493.45     0  02:13      0.63    0.77    1.00
  YS02001904YS02001907 CONDUIT    493.18     0  02:13      0.63    0.17    1.00
  YS02001907YS02006553 CONDUIT    797.24     0  02:22      0.89    0.94    1.00
  YS02001910YS02001907 CONDUIT    977.20     0  02:13      1.24    0.55    1.00
  YS02001915YS02001910 CONDUIT    977.44     0  02:13      1.24    0.49    1.00
  YS02001918YS02001915 CONDUIT    451.48     0  02:13      0.57    0.25    1.00
  YS02001920YS02001918 CONDUIT    451.47     0  02:13      0.65    0.44    1.00
  YS02001923YS02001920 CONDUIT    448.38     0  02:13      0.72    0.20    1.00
  YS02001926YS02001923 CONDUIT    423.94     0  02:12      0.98    0.61    1.00
  YS02001929YS02001926 CONDUIT    392.17     0  02:13      1.16    0.19    1.00
  YS02006553YS02006556 CONDUIT    798.00     0  02:23      1.02    0.68    1.00
  YS02006556YS02006558 CONDUIT    800.81     0  02:22      1.02    0.63    1.00
  YS02006558YS02006561 CONDUIT   1175.07     0  02:12      4.16    2.60    1.00
  YS02006561YS02001783 CONDUIT   1152.23     0  02:13      2.29    0.60    1.00
  YS02163301YS02001633 CONDUIT    937.19     0  02:10      1.19    0.88    1.00
  YS02163601YS02164001 CONDUIT   1416.63     0  02:11      1.80    1.26    1.00
  YS02164001YS02001641 CONDUIT   1414.11     0  02:11      1.80    1.93    1.00
  CC-R1                PUMP       683.00     0  00:05              1.00
  CC-R2                PUMP       683.00     0  00:05              1.00
  CC-S1                PUMP       200.00     0  00:05              1.00
  CC-S2                PUMP       200.00     0  01:10              1.00
  JK-R1                PUMP      1000.00     0  01:45              1.00
  JK-R2                PUMP      1000.00     0  01:50              1.00
  JK-S                 PUMP       300.00     0  00:05              1.00
  
  
  ***************************
  Flow Classification Summary
  ***************************
  
  -------------------------------------------------------------------------------------
                      Adjusted    ---------- Fraction of Time in Flow Class ---------- 
                       /Actual         Up    Down  Sub   Sup   Up    Down  Norm  Inlet 
  Conduit               Length    Dry  Dry   Dry   Crit  Crit  Crit  Crit  Ltd   Ctrl  
  -------------------------------------------------------------------------------------
  1                       1.00   0.00  0.00  0.00  0.00  1.00  0.00  0.00  0.43  0.00
  WS02003060WS02003069    1.00   0.00  0.00  0.00  0.97  0.03  0.00  0.00  0.79  0.00
  WS02003066WSF200        1.00   0.03  0.00  0.00  0.00  0.97  0.00  0.00  0.92  0.00
  WS02003067WS02003066    1.00   0.02  0.01  0.00  0.97  0.00  0.00  0.00  0.00  0.00
  WS02003069WS02003072    1.00   0.00  0.00  0.00  0.99  0.01  0.00  0.00  0.85  0.00
  WS02003072WS02003073    1.00   0.00  0.00  0.00  0.00  0.00  0.00  1.00  0.00  0.00
  WS02004401WS02004402    1.00   0.00  0.00  0.00  1.00  0.00  0.00  0.00  0.00  0.00
  WS02004402WS02004403    1.00   0.00  0.00  0.00  1.00  0.00  0.00  0.00  0.00  0.00
  WS02004403WS02004404    1.00   0.00  0.00  0.00  1.00  0.00  0.00  0.00  0.00  0.00
  WS02004404WS02004405    1.00   0.00  0.00  0.00  1.00  0.00  0.00  0.00  0.01  0.00
  WS02004405WS02004406    1.00   0.00  0.00  0.00  1.00  0.00  0.00  0.00  0.00  0.00
  WS02004406WS02004407    1.00   0.00  0.00  0.00  1.00  0.00  0.00  0.00  0.00  0.00
  WS02004407WS02004409    1.00   0.00  0.00  0.00  0.99  0.00  0.00  0.00  0.99  0.00
  WS02004409WS02004410    1.00   0.00  0.00  0.00  0.99  0.00  0.00  0.00  0.00  0.00
  WS02004410WS02004411    1.00   0.01  0.00  0.00  0.99  0.00  0.00  0.00  0.00  0.00
  WS02004411WS02004412    1.00   0.01  0.00  0.00  0.99  0.00  0.00  0.00  0.00  0.00
  WS02004412WS02004413    1.00   0.01  0.00  0.00  0.99  0.00  0.00  0.00  0.00  0.00
  WS02004413WS02003067    1.00   0.01  0.01  0.00  0.00  0.00  0.98  0.00  0.00  0.00
  WS02006109WS02006110    1.00   0.00  0.00  0.00  1.00  0.00  0.00  0.00  0.00  0.00
  WS02006110WS02006113    1.00   0.00  0.00  0.00  1.00  0.00  0.00  0.00  0.00  0.00
  WS02006111WS02006112    1.00   0.00  0.00  0.00  1.00  0.00  0.00  0.00  1.00  0.00
  WS02006112WS02006115    1.00   0.00  0.00  0.00  1.00  0.00  0.00  0.00  0.00  0.00
  WS02006113WS02006111    1.00   0.00  0.00  0.00  0.01  0.99  0.00  0.00  0.10  0.00
  WS02006115WS02006116    1.00   0.00  0.00  0.00  1.00  0.00  0.00  0.00  0.00  0.00
  WS02006116WS02004401    1.00   0.00  0.00  0.00  1.00  0.00  0.00  0.00  0.00  0.00
  WS02006228WS02006109    1.00   0.00  0.00  0.00  1.00  0.00  0.00  0.00  0.00  0.00
  WS02006229WS02006228    1.00   0.00  0.00  0.00  1.00  0.00  0.00  0.00  0.00  0.00
  WS02006230WS02006229    1.00   0.00  0.00  0.00  1.00  0.00  0.00  0.00  0.04  0.00
  WS02006231WS02006230    1.00   0.00  0.00  0.00  0.15  0.00  0.85  0.00  0.00  0.00
  WS02006232WS02006231    1.00   0.00  0.00  0.00  0.99  0.00  0.01  0.00  0.00  0.00
  WS02006234WS02006232    1.00   0.00  0.00  0.00  0.99  0.00  0.00  0.00  0.14  0.00
  WS02006235WS02006234    1.00   0.01  0.00  0.00  0.69  0.00  0.30  0.00  0.00  0.00
  WS02006238WS02006235    1.00   0.01  0.00  0.00  0.99  0.00  0.00  0.00  0.00  0.00
  WS02006239WS02006238    1.00   0.01  0.00  0.00  0.99  0.00  0.00  0.00  0.35  0.00
  WS02006240WS02006239    1.00   0.01  0.00  0.00  0.49  0.00  0.00  0.50  0.04  0.00
  WS02006242WS02006240    1.00   0.01  0.00  0.00  0.98  0.00  0.01  0.00  0.00  0.00
  WS02006243WS02006242    1.00   0.01  0.00  0.00  0.98  0.00  0.00  0.01  0.71  0.00
  WS02006245WS02006243    1.00   0.01  0.00  0.00  0.68  0.00  0.00  0.31  0.01  0.00
  WS02006247WS02006245    1.00   0.01  0.00  0.00  0.95  0.00  0.00  0.04  0.00  0.00
  WS02006248WS02006247    1.00   0.01  0.00  0.00  0.97  0.00  0.00  0.02  0.56  0.00
  WS02006249WS02006248    1.00   0.00  0.01  0.00  0.26  0.00  0.73  0.00  0.00  0.00
  WS02006251WS02006249    1.00   0.00  0.00  0.00  0.99  0.01  0.00  0.00  0.72  0.00
  WS02006252WS02006251    1.00   0.01  0.72  0.00  0.04  0.00  0.22  0.00  0.00  0.00
  WS02006256WS02006235    1.00   0.01  0.00  0.00  0.97  0.02  0.00  0.00  0.00  0.00
  WSF200WS02003060        1.00   0.00  0.03  0.00  0.62  0.35  0.00  0.00  0.78  0.00
  YS02001580YS02001583    1.00   0.26  0.58  0.00  0.15  0.00  0.00  0.00  0.67  0.00
  YS02001583YS02001586    1.00   0.49  0.30  0.00  0.21  0.00  0.00  0.00  0.67  0.00
  YS02001586YS02001590    1.00   0.13  0.00  0.00  0.38  0.04  0.00  0.46  0.35  0.00
  YS02001590YS02001593    1.00   0.13  0.01  0.00  0.08  0.00  0.79  0.00  0.00  0.00
  YS02001593YS02001596    1.00   0.14  0.00  0.00  0.09  0.01  0.00  0.77  0.02  0.00
  YS02001596YS02001600    1.00   0.14  0.00  0.00  0.16  0.01  0.00  0.69  0.05  0.00
  YS02001600YS02001601    1.00   0.13  0.01  0.00  0.86  0.00  0.00  0.00  0.64  0.00
  YS02001601YS02001602    1.00   0.13  0.01  0.00  0.86  0.00  0.00  0.00  0.00  0.00
  YS02001602YS02001605    1.00   0.14  0.00  0.00  0.86  0.00  0.00  0.00  0.00  0.00
  YS02001605YS02001607    1.00   0.14  0.00  0.00  0.86  0.00  0.00  0.00  0.00  0.00
  YS02001607YS02001610    1.00   0.13  0.01  0.00  0.86  0.00  0.00  0.00  0.02  0.00
  YS02001610YS02001613    1.00   0.13  0.00  0.00  0.87  0.00  0.00  0.00  0.01  0.00
  YS02001613YS02001616    1.00   0.13  0.00  0.00  0.87  0.00  0.00  0.00  0.01  0.00
  YS02001616YS02001619    1.00   0.13  0.00  0.00  0.87  0.00  0.00  0.00  0.00  0.00
  YS02001619YS02001622    1.00   0.13  0.00  0.00  0.87  0.00  0.00  0.00  0.35  0.00
  YS02001622YS02001625    1.00   0.13  0.00  0.00  0.87  0.00  0.00  0.00  0.06  0.00
  YS02001625YS02001629    1.00   0.13  0.06  0.00  0.11  0.00  0.70  0.00  0.00  0.00
  YS02001629YS02163301    1.00   0.16  0.01  0.00  0.83  0.00  0.00  0.00  0.00  0.00
  YS02001633YS02163601    1.00   0.00  0.01  0.00  0.99  0.00  0.00  0.00  0.15  0.00
  YS02001641YS02001644    1.00   0.00  0.01  0.00  0.99  0.00  0.00  0.00  0.00  0.00
  YS02001644YS02001647    1.00   0.00  0.18  0.00  0.82  0.00  0.00  0.00  0.00  0.00
  YS02001647YS02001649    1.00   0.00  0.18  0.00  0.52  0.29  0.00  0.00  0.59  0.00
  YS02001649YS02001757    1.00   0.00  0.00  0.00  0.68  0.32  0.00  0.00  0.57  0.00
  YS02001652YS02001649    1.00   0.00  0.00  0.00  0.96  0.04  0.00  0.00  0.79  0.00
  YS02001655YS02001652    1.00   0.00  0.00  0.00  0.12  0.02  0.00  0.85  0.06  0.00
  YS02001658YS02001655    1.00   0.00  0.14  0.00  0.62  0.23  0.00  0.00  0.75  0.00
  YS02001661YS02001658    1.00   0.14  0.00  0.00  0.49  0.37  0.00  0.00  0.75  0.00
  YS02001664YS02001661    1.00   0.13  0.00  0.00  0.77  0.10  0.00  0.00  0.86  0.00
  YS02001745YS02001748    1.00   0.00  0.00  0.00  0.03  0.01  0.00  0.96  0.03  0.00
  YS02001748YS02001751    1.00   0.00  0.00  0.00  0.80  0.20  0.00  0.00  0.80  0.00
  YS02001751YS02001754    1.00   0.00  0.00  0.00  0.09  0.01  0.00  0.90  0.02  0.00
  YS02001754YS02001757    1.00   0.00  0.00  0.00  1.00  0.00  0.00  0.00  0.89  0.00
  YS02001757CaochengTiaoxuchi    1.00   0.00  0.00  0.00  0.96  0.04  0.00  0.00  0.87  0.00
  YS02001759YS02001757    1.00   0.00  0.00  0.00  1.00  0.00  0.00  0.00  0.68  0.00
  YS02001762YS02001759    1.00   0.00  0.00  0.00  1.00  0.00  0.00  0.00  0.05  0.00
  YS02001765YS02001762    1.00   0.00  0.00  0.00  1.00  0.00  0.00  0.00  0.78  0.00
  YS02001767YS02001765    1.00   0.00  0.00  0.00  1.00  0.00  0.00  0.00  0.00  0.00
  YS02001770YS02001767    1.00   0.00  0.00  0.00  1.00  0.00  0.00  0.00  0.00  0.00
  YS02001774YS02001770    1.00   0.00  0.13  0.00  0.60  0.00  0.27  0.00  0.04  0.00
  YS02001779YS02001774    1.00   0.00  0.00  0.00  1.00  0.00  0.00  0.00  0.82  0.00
  YS02001783YS02001784    1.00   0.00  0.19  0.00  0.81  0.00  0.00  0.00  0.58  0.00
  YS02001784YS02001785    1.00   0.00  0.00  0.00  1.00  0.00  0.00  0.00  0.18  0.00
  YS02001786YS02001788    1.00   0.00  0.00  0.00  0.81  0.19  0.00  0.00  0.00  0.00
  YS02001788YS02001790    1.00   0.00  0.00  0.00  0.21  0.79  0.00  0.00  0.84  0.00
  YS02001790YS02001791    1.00   0.00  0.00  0.00  0.01  0.99  0.00  0.00  0.15  0.00
  YS02001791YS02001793    1.00   0.00  0.00  0.00  0.00  1.00  0.00  0.00  0.00  0.00
  YS02001793JiankangQianchi    1.00   0.00  0.00  0.00  0.99  0.01  0.00  0.00  0.97  0.00
  YS02001882YS02001884    1.00   0.16  0.01  0.00  0.83  0.00  0.00  0.00  0.00  0.00
  YS02001884YS02001887    1.00   0.06  0.05  0.00  0.89  0.00  0.00  0.00  0.00  0.00
  YS02001887YS02001890    1.00   0.00  0.00  0.00  0.97  0.00  0.03  0.00  0.00  0.00
  YS02001890YS02001895    1.00   0.00  0.17  0.00  0.83  0.00  0.00  0.00  0.00  0.00
  YS02001895YS02001898    1.00   0.17  0.00  0.00  0.80  0.00  0.02  0.00  0.00  0.00
  YS02001898YS02001901    1.00   0.17  0.00  0.00  0.82  0.00  0.00  0.00  0.01  0.00
  YS02001901YS02001904    1.00   0.17  0.00  0.00  0.83  0.00  0.00  0.00  0.00  0.00
  YS02001904YS02001907    1.00   0.00  0.17  0.00  0.83  0.00  0.00  0.00  0.00  0.00
  YS02001907YS02006553    1.00   0.00  0.02  0.00  0.98  0.00  0.00  0.00  0.00  0.00
  YS02001910YS02001907    1.00   0.00  0.00  0.00  0.97  0.00  0.00  0.03  0.12  0.00
  YS02001915YS02001910    1.00   0.00  0.00  0.00  0.96  0.04  0.00  0.00  0.17  0.00
  YS02001918YS02001915    1.00   0.00  0.00  0.00  0.98  0.02  0.00  0.00  0.80  0.00
  YS02001920YS02001918    1.00   0.00  0.00  0.00  1.00  0.00  0.00  0.00  0.01  0.00
  YS02001923YS02001920    1.00   0.00  0.00  0.00  1.00  0.00  0.00  0.00  0.95  0.00
  YS02001926YS02001923    1.00   0.00  0.07  0.00  0.03  0.00  0.89  0.00  0.00  0.00
  YS02001929YS02001926    1.00   0.00  0.13  0.00  0.87  0.00  0.00  0.00  0.85  0.00
  YS02006553YS02006556    1.00   0.01  0.00  0.00  0.99  0.00  0.00  0.00  0.03  0.00
  YS02006556YS02006558    1.00   0.00  0.00  0.00  1.00  0.00  0.00  0.00  0.00  0.00
  YS02006558YS02006561    1.00   0.19  0.00  0.00  0.03  0.78  0.00  0.00  0.18  0.00
  YS02006561YS02001783    1.00   0.19  0.00  0.00  0.06  0.75  0.00  0.00  0.72  0.00
  YS02163301YS02001633    1.00   0.00  0.16  0.00  0.84  0.00  0.00  0.00  0.00  0.00
  YS02163601YS02164001    1.00   0.00  0.08  0.00  0.92  0.00  0.00  0.00  0.00  0.00
  YS02164001YS02001641    1.00   0.01  0.07  0.00  0.92  0.00  0.00  0.00  0.06  0.00
  
  
  *************************
  Conduit Surcharge Summary
  *************************
  
  ----------------------------------------------------------------------------
                                                           Hours        Hours 
                         --------- Hours Full --------   Above Full   Capacity
  Conduit                Both Ends  Upstream  Dnstream   Normal Flow   Limited
  ----------------------------------------------------------------------------
  WS02003072WS02003073        0.01      0.01      0.01      0.51         0.01
  WS02004401WS02004402        0.01      0.01      0.01      0.01         0.01
  WS02004402WS02004403        0.01      0.01      0.01      0.01         0.01
  WS02004404WS02004405        0.01      0.01      0.01      1.89         0.01
  WS02004405WS02004406        0.01      0.01      0.01      0.24         0.01
  WS02006109WS02006110        0.27      0.27      1.08      0.33         0.01
  WS02006110WS02006113        0.01      0.01      1.08      0.01         0.01
  WS02006111WS02006112        0.01      0.01      1.22      0.01         0.01
  WS02006112WS02006115        0.01      0.01      0.30      0.01         0.01
  WS02006113WS02006111        0.01      0.01      0.01      0.01         0.01
  WS02006115WS02006116        0.01      0.01      0.01      0.01         0.01
  WS02006116WS02004401        0.01      0.01      0.01      0.01         0.01
  WS02006228WS02006109        1.06      1.09      1.06      1.51         1.06
  WS02006229WS02006228        1.06      1.06      1.06      1.21         1.05
  WS02006230WS02006229        1.14      1.17      1.14      2.28         1.14
  WS02006231WS02006230        0.28      0.28      0.36      1.97         0.01
  WS02006232WS02006231        0.34      0.34      1.09      0.38         0.01
  WS02006234WS02006232        1.04      1.04      1.09      0.37         0.36
  WS02006235WS02006234        0.52      0.52      1.05      1.81         0.01
  WS02006238WS02006235        1.06      1.06      1.08      0.01         0.01
  WS02006239WS02006238        1.06      1.07      1.07      1.10         0.98
  WS02006240WS02006239        1.05      1.06      1.05      1.07         0.96
  WS02006242WS02006240        1.06      1.06      1.08      1.21         0.01
  WS02006243WS02006242        1.06      1.06      1.07      0.01         0.02
  WS02006245WS02006243        1.05      1.05      1.05      0.79         0.74
  WS02006247WS02006245        1.04      1.05      1.04      1.59         1.04
  WS02006248WS02006247        1.03      1.03      1.04      0.01         0.02
  WS02006249WS02006248        1.03      1.03      1.03      1.54         0.01
  WS02006251WS02006249        1.03      1.03      1.03      1.14         1.00
  WS02006252WS02006251        1.18      1.18      1.20      1.18         0.01
  WS02006256WS02006235        1.85      1.88      5.41      0.74         0.01
  YS02001580YS02001583        0.34      0.34      0.37      0.01         0.01
  YS02001583YS02001586        0.34      0.34      0.44      0.01         0.01
  YS02001586YS02001590        0.45      0.45      0.50      0.01         0.01
  YS02001590YS02001593        0.50      0.50      0.52      0.53         0.01
  YS02001593YS02001596        0.51      0.51      0.60      0.01         0.01
  YS02001596YS02001600        0.64      0.64      0.72      0.01         0.01
  YS02001600YS02001601        0.78      0.78      1.07      0.01         0.01
  YS02001601YS02001602        0.94      0.94      1.12      0.74         0.01
  YS02001602YS02001605        0.89      0.89      0.94      1.92         0.01
  YS02001605YS02001607        0.85      0.89      0.85      1.02         0.85
  YS02001607YS02001610        0.46      0.46      0.48      0.01         0.01
  YS02001610YS02001613        0.45      0.45      0.48      0.01         0.01
  YS02001613YS02001616        0.41      0.41      0.45      0.01         0.01
  YS02001616YS02001619        0.40      0.40      0.41      0.01         0.01
  YS02001619YS02001622        0.40      0.40      0.40      0.54         0.38
  YS02001622YS02001625        0.40      0.40      0.55      0.01         0.01
  YS02001625YS02001629        0.35      0.35      0.55      0.01         0.01
  YS02001629YS02163301        0.54      0.54      0.55      0.23         0.22
  YS02001633YS02163601        0.56      0.56      0.59      0.37         0.36
  YS02001641YS02001644        0.45      0.49      0.45      1.17         0.45
  YS02001644YS02001647        0.27      0.27      0.45      0.05         0.01
  YS02001647YS02001649        0.27      0.27      0.34      0.01         0.01
  YS02001649YS02001757        0.33      0.34      0.36      0.27         0.20
  YS02001652YS02001649        0.23      0.23      0.34      0.01         0.01
  YS02001655YS02001652        0.11      0.11      0.21      0.01         0.01
  YS02001658YS02001655        0.01      0.01      0.11      0.01         0.01
  YS02001661YS02001658        0.01      0.01      0.01      0.01         0.01
  YS02001748YS02001751        0.01      0.01      0.03      0.01         0.01
  YS02001751YS02001754        0.03      0.03      0.13      0.01         0.01
  YS02001754YS02001757        0.16      0.16      0.36      0.01         0.01
  YS02001757CaochengTiaoxuchi        0.30      0.36      0.89      0.24         0.14
  YS02001759YS02001757        0.29      0.29      0.36      0.01         0.01
  YS02001762YS02001759        0.27      0.27      0.29      0.01         0.01
  YS02001765YS02001762        0.24      0.24      0.27      0.01         0.01
  YS02001767YS02001765        0.23      0.23      0.24      0.01         0.01
  YS02001770YS02001767        0.23      0.23      0.23      0.34         0.17
  YS02001774YS02001770        0.21      0.21      0.26      0.01         0.01
  YS02001779YS02001774        0.14      0.14      0.26      0.01         0.01
  YS02001783YS02001784        0.29      0.31      0.29      0.43         0.29
  YS02001784YS02001785        0.20      0.29      0.20      0.61         0.20
  YS02001786YS02001788        0.01      0.20      0.01      0.52         0.01
  YS02001790YS02001791        0.01      0.01      0.01      0.28         0.01
  YS02001793JiankangQianchi        0.01      0.01      6.88      0.01         0.01
  YS02001882YS02001884        0.27      0.27      0.27      0.01         0.01
  YS02001884YS02001887        0.29      0.29      0.30      0.01         0.01
  YS02001887YS02001890        0.31      0.31      0.32      0.01         0.01
  YS02001890YS02001895        0.26      0.26      0.34      0.01         0.01
  YS02001895YS02001898        0.25      0.25      0.26      0.01         0.01
  YS02001898YS02001901        0.26      0.26      0.29      0.01         0.01
  YS02001901YS02001904        0.28      0.28      0.29      0.01         0.01
  YS02001904YS02001907        0.28      0.28      0.51      0.01         0.01
  YS02001907YS02006553        0.62      0.62      0.68      0.01         0.01
  YS02001910YS02001907        0.33      0.33      0.49      0.01         0.01
  YS02001915YS02001910        0.26      0.26      0.33      0.01         0.01
  YS02001918YS02001915        0.19      0.19      0.26      0.01         0.01
  YS02001920YS02001918        0.19      0.19      0.20      0.01         0.01
  YS02001923YS02001920        0.15      0.15      0.20      0.01         0.01
  YS02001926YS02001923        0.01      0.01      0.01      0.01         0.01
  YS02001929YS02001926        0.01      0.01      0.01      0.01         0.01
  YS02006553YS02006556        0.41      0.41      0.51      0.01         0.01
  YS02006556YS02006558        0.45      0.45      0.52      0.01         0.01
  YS02006558YS02006561        0.22      0.40      0.22      0.57         0.22
  YS02006561YS02001783        0.16      0.16      0.31      0.01         0.01
  YS02163301YS02001633        0.55      0.55      0.58      0.01         0.01
  YS02163601YS02164001        0.50      0.50      0.59      0.12         0.01
  YS02164001YS02001641        0.49      0.50      0.49      0.63         0.47
  
  
  ***************
  Pumping Summary
  ***************
  
  ---------------------------------------------------------------------------------------------------------
                                                  Min       Avg       Max     Total     Power    % Time Off
                        Percent   Number of      Flow      Flow      Flow    Volume     Usage    Pump Curve
  Pump                 Utilized   Start-Ups       LPS       LPS       LPS  10^6 ltr     Kw-hr    Low   High
  ---------------------------------------------------------------------------------------------------------
  CC-R1                   17.26          22      0.00    683.00    683.00     3.396     60.15    0.0   45.9
  CC-R2                   15.89          28      0.00    683.00    683.00     3.126     54.64    0.0   54.1
  CC-S1                   21.24          16      0.00    200.00    200.00     1.223      7.62    0.0    0.0
  CC-S2                   14.80          11      0.00    200.00    200.00     0.853      5.16    0.0    0.0
  JK-R1                    5.01          20      0.00   1000.00   1000.00     1.443     14.47    0.0    0.0
  JK-R2                    2.72          12      0.00   1000.00   1000.00     0.784      5.89    0.0    0.0
  JK-S                     8.74          26      0.00    300.00    300.00     0.755     12.76    0.0    0.0
  

  Analysis begun on:  Fri Aug  4 08:52:03 2023
  Analysis ended on:  Fri Aug  4 08:52:08 2023
  Total elapsed time: 00:00:05