
  OWA STORM WATER MANAGEMENT MODEL - VERSION v5.2.3 (OWA 2023-06-06)
  ------------------------------------------------------------

  WARNING 04: minimum elevation drop used for Conduit WS02004404WS02004405
  WARNING 03: negative offset ignored for Link YS02001904YS02001907
  
  ****************
  Analysis Options
  ****************
  Flow Units ............... LPS
  Process Models:
    Rainfall/Runoff ........ YES
    RDII ................... NO
    Snowmelt ............... NO
    Groundwater ............ NO
    Flow Routing ........... YES
    Ponding Allowed ........ NO
    Water Quality .......... NO
  Infiltration Method ...... HORTON
  Flow Routing Method ...... DYNWAVE
  Surcharge Method ......... EXTRAN
  Starting Date ............ 08/28/2015 08:00:00
  Ending Date .............. 08/28/2015 16:00:00
  Antecedent Dry Days ...... 8.0
  Report Time Step ......... 00:01:00
  Wet Time Step ............ 00:01:00
  Dry Time Step ............ 00:01:00
  Routing Time Step ........ 30.00 sec
  Variable Time Step ....... YES
  Maximum Trials ........... 8
  Number of Threads ........ 2
  Head Tolerance ........... 0.001500 m
  
  
  **************************        Volume         Depth
  Runoff Quantity Continuity     hectare-m            mm
  **************************     ---------       -------
  Initial LID Storage ......         0.049         1.488
  Total Precipitation ......         1.340        40.385
  Evaporation Loss .........         0.000         0.000
  Infiltration Loss ........         0.072         2.156
  Surface Runoff ...........         0.960        28.954
  Final Storage ............         0.358        10.782
  Continuity Error (%) .....        -0.045
  
  
  **************************        Volume        Volume
  Flow Routing Continuity        hectare-m      10^6 ltr
  **************************     ---------     ---------
  Dry Weather Inflow .......         0.025         0.251
  Wet Weather Inflow .......         0.959         9.593
  Groundwater Inflow .......         0.000         0.000
  RDII Inflow ..............         0.000         0.000
  External Inflow ..........         0.083         0.834
  External Outflow .........         1.097        10.973
  Flooding Loss ............         0.062         0.619
  Evaporation Loss .........         0.000         0.000
  Exfiltration Loss ........         0.000         0.000
  Initial Stored Volume ....         0.243         2.431
  Final Stored Volume ......         0.180         1.803
  Continuity Error (%) .....        -2.183
  
  
  *************************
  Highest Continuity Errors
  *************************
  Node YS02001583 (-9.53%)
  Node YS02001884 (4.91%)
  Node WS02006256 (-2.72%)
  Node YS02001774 (2.13%)
  Node WS02006111 (-1.36%)
  
  
  ***************************
  Time-Step Critical Elements
  ***************************
  Link WS02006252WS02006251 (42.40%)
  Link WS02004404WS02004405 (23.25%)
  Link WS02006238WS02006235 (14.97%)
  Link WS02003066WSF200 (6.14%)
  Link YS02006556YS02006558 (2.26%)
  
  
  ********************************
  Highest Flow Instability Indexes
  ********************************
  Link WS02006113WS02006111 (31)
  Link WS02006256WS02006235 (11)
  Link WS02006238WS02006235 (10)
  Link WS02006229WS02006228 (10)
  Link WS02006111WS02006112 (10)
  
  
  *********************************
  Most Frequent Nonconverging Nodes
  *********************************
  Node CC-1 (9.07%)
  Node CC-2 (9.07%)
  Node JK-1 (9.07%)
  Node JK-2 (9.07%)
  Node WSC (9.07%)
  
  
  *************************
  Routing Time Step Summary
  *************************
  Minimum Time Step           :     0.00 sec
  Average Time Step           :     2.57 sec
  Maximum Time Step           :    30.00 sec
  % of Time in Steady State   :     0.00
  Average Iterations per Step :     2.85
  % of Steps Not Converging   :     9.07
  Time Step Frequencies       :
     30.000 - 13.228 sec      :     0.01 %
     13.228 -  5.833 sec      :    18.47 %
      5.833 -  2.572 sec      :    20.06 %
      2.572 -  1.134 sec      :    14.48 %
      1.134 -  0.500 sec      :    46.99 %
  
  
  ***************************
  Subcatchment Runoff Summary
  ***************************
  
  ------------------------------------------------------------------------------------------------------------------------------
                            Total      Total      Total      Total     Imperv       Perv      Total       Total     Peak  Runoff
                           Precip      Runon       Evap      Infil     Runoff     Runoff     Runoff      Runoff   Runoff   Coeff
  Subcatchment                 mm         mm         mm         mm         mm         mm         mm    10^6 ltr      LPS
  ------------------------------------------------------------------------------------------------------------------------------
  sub60                     40.39       0.00       0.00       1.32      26.50       2.42      28.92        0.38   226.81   0.716
  sub61                     40.39       0.00       0.00       2.02      26.48       3.59      30.07        0.55   323.61   0.745
  sub62                     40.39       0.00       0.00       0.90      28.22       1.64      29.86        0.82   447.15   0.739
  sub63                     40.39       0.00       0.00       3.65      22.68       5.94      28.61        0.65   346.32   0.709
  sub64                     40.39       0.00       0.00       1.76      25.81       2.96      28.77        0.69   349.88   0.712
  sub65                     40.39       0.00       0.00       1.62      27.86       2.70      30.56        0.84   405.26   0.757
  sub66                     40.39       0.00       0.00       4.17      21.91       5.12      27.03        1.26   494.75   0.669
  sub67                     40.39       0.00       0.00       0.90      28.94       1.71      30.65        0.57   362.27   0.759
  sub68                     40.39       0.00       0.00       1.55      25.56       2.76      28.31        0.78   441.62   0.701
  sub69                     40.39       0.00       0.00       1.38      27.13       3.42      30.55        1.13   540.46   0.757
  sub70                     40.39       0.00       0.00       4.47      21.72       6.77      28.48        0.82   291.68   0.705
  sub71                     40.39       0.00       0.00       0.83      25.63       1.48      27.12        0.71   361.15   0.671
  sub72                     40.39       0.00       0.00       0.79      27.67       1.38      29.05        0.40   180.75   0.719
  

  ***********************
  LID Performance Summary
  ***********************

  --------------------------------------------------------------------------------------------------------------------
                                         Total      Evap     Infil   Surface    Drain    Initial     Final  Continuity
                                        Inflow      Loss      Loss   Outflow   Outflow   Storage   Storage       Error
  Subcatchment      LID Control             mm        mm        mm        mm        mm        mm        mm           %
  --------------------------------------------------------------------------------------------------------------------
  sub60             GreenRoof            40.39      0.00      0.00      0.00      0.00      7.05     47.49       -0.11
  sub61             GreenRoof            40.39      0.00      0.00      0.00      0.00      7.05     47.49       -0.11
  sub62             GreenRoof            40.39      0.00      0.00      0.00      0.00      7.05     47.49       -0.11
  sub63             GreenRoof            40.39      0.00      0.00      0.00      0.00      7.05     47.49       -0.11
  sub64             GreenRoof            40.39      0.00      0.00      0.00      0.00      7.05     47.49       -0.11
  sub65             GreenRoof            40.39      0.00      0.00      0.00      0.00      7.05     47.49       -0.11
  sub66             GreenRoof            40.39      0.00      0.00      0.00      0.00      7.05     47.49       -0.11
  sub67             GreenRoof            40.39      0.00      0.00      0.00      0.00      7.05     47.49       -0.11
  sub68             GreenRoof            40.39      0.00      0.00      0.00      0.00      7.05     47.49       -0.11
  sub69             GreenRoof            40.39      0.00      0.00      0.00      0.00      7.05     47.49       -0.11
  sub70             GreenRoof            40.39      0.00      0.00      0.00      0.00      7.05     47.49       -0.11
  sub71             GreenRoof            40.39      0.00      0.00      0.00      0.00      7.05     47.49       -0.11
  sub72             GreenRoof            40.39      0.00      0.00      0.00      0.00      7.05     47.49       -0.11
  
  ******************
  Node Depth Summary
  ******************
  
  ---------------------------------------------------------------------------------
                                 Average  Maximum  Maximum  Time of Max    Reported
                                   Depth    Depth      HGL   Occurrence   Max Depth
  Node                 Type       Meters   Meters   Meters  days hr:min      Meters
  ---------------------------------------------------------------------------------
  WS02003060           JUNCTION     0.19     0.38     5.31     0  02:18        0.38
  WS02003066           JUNCTION     0.16     0.30     5.85     0  02:17        0.30
  WS02003067           JUNCTION     0.45     0.70     6.02     0  02:17        0.70
  WS02003069           JUNCTION     0.21     0.43     5.01     0  02:18        0.43
  WS02003072           JUNCTION     0.27     0.50     4.87     0  02:19        0.50
  WS02003073           JUNCTION     0.15     0.30     4.36     0  02:19        0.30
  WS02004401           JUNCTION     0.54     0.85     6.85     0  02:15        0.85
  WS02004402           JUNCTION     0.57     0.88     6.84     0  02:15        0.88
  WS02004403           JUNCTION     0.60     0.89     6.82     0  02:15        0.89
  WS02004404           JUNCTION     0.67     0.96     6.81     0  02:15        0.96
  WS02004405           JUNCTION     0.67     0.96     6.81     0  02:15        0.95
  WS02004406           JUNCTION     0.69     0.96     6.79     0  02:15        0.96
  WS02004407           JUNCTION     0.15     0.30     6.61     0  02:15        0.30
  WS02004409           JUNCTION     0.32     0.67     6.44     0  02:16        0.67
  WS02004410           JUNCTION     0.35     0.68     6.40     0  02:16        0.68
  WS02004411           JUNCTION     0.38     0.69     6.37     0  02:16        0.69
  WS02004412           JUNCTION     0.40     0.70     6.34     0  02:17        0.70
  WS02004413           JUNCTION     0.57     0.86     6.33     0  02:17        0.86
  WS02006109           JUNCTION     0.57     1.43     8.05     0  02:00        0.98
  WS02006110           JUNCTION     0.59     1.58     8.16     0  02:01        0.97
  WS02006111           JUNCTION     0.15     0.90     7.60     0  00:00        0.40
  WS02006112           JUNCTION     0.68     2.68     8.56     0  00:00        1.14
  WS02006113           JUNCTION     0.22     1.40     8.29     0  00:00        0.46
  WS02006115           JUNCTION     0.41     1.65     7.79     0  00:00        0.86
  WS02006116           JUNCTION     0.50     1.06     7.10     0  00:00        0.83
  WS02006228           JUNCTION     0.56     1.73     8.38     0  02:00        1.01
  WS02006229           JUNCTION     0.53     1.80     8.50     0  02:00        1.01
  WS02006230           JUNCTION     0.51     2.14     8.89     0  02:00        1.10
  WS02006231           JUNCTION     0.33     1.81     8.94     0  02:00        0.85
  WS02006232           JUNCTION     0.45     1.81     8.85     0  02:00        1.09
  WS02006234           JUNCTION     0.37     1.64     8.79     0  02:00        1.14
  WS02006235           JUNCTION     0.40     1.91     9.08     0  02:00        1.24
  WS02006238           JUNCTION     0.43     1.98     9.13     0  02:00        1.28
  WS02006239           JUNCTION     0.38     1.95     9.16     0  02:00        1.27
  WS02006240           JUNCTION     0.35     1.94     9.23     0  03:00        1.23
  WS02006242           JUNCTION     0.41     1.55     8.82     0  02:00        1.30
  WS02006243           JUNCTION     0.32     1.48     8.90     0  03:00        1.20
  WS02006245           JUNCTION     0.32     1.33     8.82     0  02:00        1.17
  WS02006247           JUNCTION     0.34     1.27     8.77     0  02:00        1.17
  WS02006248           JUNCTION     0.31     1.10     8.69     0  02:00        1.10
  WS02006249           JUNCTION     0.34     1.09     8.69     0  01:52        1.09
  WS02006251           JUNCTION     0.33     1.80     9.47     0  02:00        1.17
  WS02006252           JUNCTION     0.26     1.50     9.74     0  01:49        0.73
  WS02006256           JUNCTION     0.95     2.35     9.28     0  00:05        2.35
  WSF200               JUNCTION     0.13     0.29     5.52     0  02:17        0.29
  YS02001580           JUNCTION     0.08     1.05     9.59     0  01:39        0.72
  YS02001583           JUNCTION     0.11     1.14     9.63     0  01:39        0.77
  YS02001586           JUNCTION     0.19     1.13     9.30     0  01:39        1.09
  YS02001590           JUNCTION     0.29     1.40     9.26     0  01:37        1.33
  YS02001593           JUNCTION     0.22     1.46     9.32     0  01:39        1.25
  YS02001596           JUNCTION     0.30     1.79     9.21     0  01:39        1.63
  YS02001600           JUNCTION     0.37     1.87     9.00     0  01:37        1.85
  YS02001601           JUNCTION     0.57     2.06     8.90     0  01:37        2.06
  YS02001602           JUNCTION     0.48     1.87     8.77     0  01:39        1.87
  YS02001605           JUNCTION     0.44     1.78     8.68     0  01:39        1.75
  YS02001607           JUNCTION     0.42     1.68     8.53     0  01:39        1.58
  YS02001610           JUNCTION     0.46     1.68     8.48     0  01:39        1.63
  YS02001613           JUNCTION     0.42     1.66     8.51     0  01:39        1.56
  YS02001616           JUNCTION     0.36     1.61     8.52     0  01:39        1.46
  YS02001619           JUNCTION     0.33     1.61     8.54     0  01:39        1.42
  YS02001622           JUNCTION     0.32     1.62     8.52     0  01:39        1.39
  YS02001625           JUNCTION     0.57     1.78     8.38     0  01:39        1.62
  YS02001629           JUNCTION     0.45     1.85     8.40     0  01:39        1.60
  YS02001633           JUNCTION     0.52     1.86     8.32     0  01:39        1.63
  YS02001641           JUNCTION     0.48     1.42     7.86     0  01:45        1.39
  YS02001644           JUNCTION     0.47     1.34     7.77     0  01:45        1.32
  YS02001647           JUNCTION     0.25     1.01     7.62     0  01:45        0.99
  YS02001649           JUNCTION     0.28     1.12     7.51     0  01:44        1.12
  YS02001652           JUNCTION     0.16     0.89     7.49     0  01:45        0.88
  YS02001655           JUNCTION     0.10     0.62     7.47     0  01:45        0.61
  YS02001658           JUNCTION     0.07     0.27     7.41     0  01:46        0.26
  YS02001661           JUNCTION     0.12     0.32     7.72     0  01:40        0.32
  YS02001664           JUNCTION     0.06     0.22     8.15     0  01:40        0.22
  YS02001745           JUNCTION     0.05     0.20     7.72     0  01:39        0.20
  YS02001748           JUNCTION     0.06     0.23     7.31     0  01:39        0.23
  YS02001751           JUNCTION     0.07     0.43     7.31     0  01:45        0.42
  YS02001754           JUNCTION     0.11     0.72     7.32     0  01:44        0.68
  YS02001757           JUNCTION     0.28     1.23     7.49     0  01:43        1.11
  YS02001759           JUNCTION     0.21     0.98     7.35     0  01:44        0.97
  YS02001762           JUNCTION     0.20     0.95     7.35     0  01:46        0.95
  YS02001765           JUNCTION     0.18     0.90     7.35     0  01:46        0.89
  YS02001767           JUNCTION     0.18     0.87     7.36     0  01:46        0.83
  YS02001770           JUNCTION     0.20     0.88     7.38     0  01:46        0.86
  YS02001774           JUNCTION     0.26     0.95     7.37     0  01:46        0.93
  YS02001779           JUNCTION     0.09     0.70     7.38     0  01:46        0.70
  YS02001783           JUNCTION     0.25     1.10     7.24     0  01:44        1.10
  YS02001784           JUNCTION     0.27     1.01     7.08     0  01:44        1.01
  YS02001786           JUNCTION     0.23     0.81     6.84     0  01:44        0.81
  YS02001788           JUNCTION     0.16     0.59     6.56     0  01:45        0.58
  YS02001790           JUNCTION     0.20     0.67     6.32     0  01:46        0.66
  YS02001791           JUNCTION     0.13     0.41     5.88     0  01:44        0.40
  YS02001793           JUNCTION     0.06     0.20     5.03     0  01:47        0.20
  YS02001882           JUNCTION     0.29     1.70     8.41     0  01:41        1.34
  YS02001884           JUNCTION     0.38     1.78     8.40     0  01:41        1.43
  YS02001887           JUNCTION     0.45     1.83     8.37     0  01:41        1.49
  YS02001890           JUNCTION     0.48     1.81     8.32     0  01:41        1.52
  YS02001895           JUNCTION     0.27     1.53     8.27     0  01:41        1.28
  YS02001898           JUNCTION     0.27     1.48     8.21     0  01:41        1.28
  YS02001901           JUNCTION     0.38     1.52     8.13     0  01:41        1.41
  YS02001904           JUNCTION     0.36     1.40     8.03     0  01:41        1.38
  YS02001907           JUNCTION     0.66     1.73     8.02     0  01:45        1.72
  YS02001910           JUNCTION     0.47     1.61     8.12     0  01:41        1.51
  YS02001915           JUNCTION     0.29     1.72     8.44     0  01:41        1.31
  YS02001918           JUNCTION     0.14     1.00     8.06     0  01:45        0.99
  YS02001920           JUNCTION     0.22     1.08     8.09     0  01:44        1.02
  YS02001923           JUNCTION     0.10     0.83     8.09     0  01:45        0.78
  YS02001926           JUNCTION     0.14     0.64     8.08     0  01:45        0.63
  YS02001929           JUNCTION     0.06     0.37     8.06     0  01:45        0.35
  YS02006553           JUNCTION     0.66     1.71     8.00     0  01:45        1.71
  YS02006556           JUNCTION     0.64     1.65     7.96     0  01:45        1.65
  YS02006558           JUNCTION     0.68     1.69     7.95     0  01:46        1.67
  YS02006561           JUNCTION     0.14     0.68     7.34     0  01:45        0.67
  YS02163301           JUNCTION     0.47     1.91     8.43     0  01:39        1.60
  YS02163601           JUNCTION     0.54     1.70     8.10     0  01:39        1.56
  YS02164001           JUNCTION     0.47     1.52     7.98     0  01:39        1.43
  CC-1                 OUTFALL      0.00     0.00     0.00     0  00:00        0.00
  CC-2                 OUTFALL      0.00     0.00     0.00     0  00:00        0.00
  JK-1                 OUTFALL      0.00     0.00     0.00     0  00:00        0.00
  JK-2                 OUTFALL      0.00     0.00     0.00     0  00:00        0.00
  WSC                  OUTFALL      0.15     0.30     0.97     0  02:19        0.30
  CC-storage           STORAGE      0.71     1.24     6.74     0  02:10        1.24
  JK-storage           STORAGE      1.50     4.21     5.01     0  01:53        3.98
  
  
  *******************
  Node Inflow Summary
  *******************
  
  -------------------------------------------------------------------------------------------------
                                  Maximum  Maximum                  Lateral       Total        Flow
                                  Lateral    Total  Time of Max      Inflow      Inflow     Balance
                                   Inflow   Inflow   Occurrence      Volume      Volume       Error
  Node                 Type           LPS      LPS  days hr:min    10^6 ltr    10^6 ltr     Percent
  -------------------------------------------------------------------------------------------------
  WS02003060           JUNCTION     16.53   552.44     0  02:18       0.476        3.29       0.067
  WS02003066           JUNCTION      0.00   535.84     0  02:17           0        2.82       0.048
  WS02003067           JUNCTION      0.00   535.82     0  02:17           0        2.82       0.145
  WS02003069           JUNCTION      0.32   552.70     0  02:18     0.00922         3.3       0.112
  WS02003072           JUNCTION      0.00   552.61     0  02:18           0         3.3       0.208
  WS02003073           JUNCTION      1.82   554.37     0  02:19      0.0524        3.34       0.161
  WS02004401           JUNCTION      0.00  1677.78     0  00:00           0        2.93       0.383
  WS02004402           JUNCTION      0.00  1171.33     0  00:01           0        2.92       0.377
  WS02004403           JUNCTION      0.00   884.75     0  00:01           0        2.91       0.368
  WS02004404           JUNCTION      0.16   832.59     0  00:01     0.00467         2.9       0.305
  WS02004405           JUNCTION      0.04   776.49     0  00:01      0.0011        2.89       0.429
  WS02004406           JUNCTION      0.00   711.76     0  00:02           0        2.88       0.747
  WS02004407           JUNCTION      0.00   536.28     0  02:15           0        2.86       0.032
  WS02004409           JUNCTION      0.00   536.22     0  02:15           0        2.86       0.083
  WS02004410           JUNCTION      0.00   536.06     0  02:16           0        2.85       0.149
  WS02004411           JUNCTION      0.00   535.97     0  02:16           0        2.85       0.195
  WS02004412           JUNCTION      0.00   535.89     0  02:16           0        2.84       0.255
  WS02004413           JUNCTION      0.00   535.90     0  02:17           0        2.84       0.465
  WS02006109           JUNCTION      1.23  1308.01     0  00:00      0.0354        2.86       0.232
  WS02006110           JUNCTION      0.00   564.66     0  02:00           0        2.83      -1.286
  WS02006111           JUNCTION      0.00  1176.04     0  00:00           0        2.86      -1.343
  WS02006112           JUNCTION      0.00  2307.30     0  00:00           0         2.9      -0.024
  WS02006113           JUNCTION      0.00   570.89     0  02:01           0        2.82      -1.747
  WS02006115           JUNCTION      0.00   899.27     0  00:00           0        2.87      -1.126
  WS02006116           JUNCTION      0.00  1098.16     0  00:01           0         2.9      -0.888
  WS02006228           JUNCTION      0.00   563.50     0  02:00           0         2.8       0.076
  WS02006229           JUNCTION      0.00   563.53     0  02:00           0        2.79       0.333
  WS02006230           JUNCTION     10.28   581.39     0  02:25       0.296        2.77       0.067
  WS02006231           JUNCTION      0.00   570.77     0  02:25           0        2.46      -0.175
  WS02006232           JUNCTION      0.00   569.66     0  02:25           0        2.47       0.429
  WS02006234           JUNCTION      0.00   565.44     0  02:25           0        2.45      -0.532
  WS02006235           JUNCTION      0.00   558.55     0  02:25           0        2.56       0.537
  WS02006238           JUNCTION      0.00   422.36     0  01:55           0        1.93      -0.116
  WS02006239           JUNCTION      0.00   421.09     0  01:55           0        1.86      -0.139
  WS02006240           JUNCTION      0.00   418.03     0  01:55           0        1.82      -0.033
  WS02006242           JUNCTION      0.00   417.84     0  01:55           0         1.8       0.028
  WS02006243           JUNCTION      0.00   418.68     0  01:55           0        1.78      -0.427
  WS02006245           JUNCTION      0.00   419.05     0  01:55           0        1.79       0.469
  WS02006247           JUNCTION      0.00   418.68     0  01:55           0        1.79      -0.001
  WS02006248           JUNCTION      0.00   418.61     0  01:55           0        1.79       0.011
  WS02006249           JUNCTION      0.00   437.56     0  01:52           0        1.89       0.512
  WS02006251           JUNCTION      0.08   411.74     0  01:52     0.00222        1.89      -0.048
  WS02006252           JUNCTION      0.00   400.00     0  01:49           0        1.88      -0.238
  WS02006256           JUNCTION      0.00   300.00     0  00:05           0       0.897      -2.645
  WSF200               JUNCTION      0.00   535.86     0  02:17           0        2.82       0.014
  YS02001580           JUNCTION      0.00   138.37     0  01:38           0     0.00446       0.610
  YS02001583           JUNCTION      0.00   221.12     0  01:39           0      0.0148      -8.697
  YS02001586           JUNCTION    291.68   291.87     0  01:43       0.822       0.834       0.193
  YS02001590           JUNCTION      0.00   291.88     0  01:43           0        0.82      -0.042
  YS02001593           JUNCTION      0.00   291.89     0  01:43           0        0.82       0.023
  YS02001596           JUNCTION      0.00   291.90     0  01:43           0        0.82      -0.018
  YS02001600           JUNCTION      0.00   291.92     0  01:43           0        0.82       0.001
  YS02001601           JUNCTION    540.46   826.11     0  01:41        1.13        1.95       0.043
  YS02001602           JUNCTION      0.00   583.44     0  01:39           0        1.69       0.022
  YS02001605           JUNCTION      0.00   583.61     0  01:39           0        1.69       0.011
  YS02001607           JUNCTION      0.00   583.44     0  01:39           0        1.69       0.094
  YS02001610           JUNCTION      0.00   559.97     0  01:38           0        1.69       0.125
  YS02001613           JUNCTION      0.00   521.06     0  01:38           0        1.69       0.083
  YS02001616           JUNCTION      0.00   512.42     0  01:56           0        1.69       0.014
  YS02001619           JUNCTION    494.75   947.31     0  01:39        1.26        2.95       0.003
  YS02001622           JUNCTION      0.00   950.73     0  01:39           0        2.95      -0.013
  YS02001625           JUNCTION      0.00   956.37     0  01:39           0        2.95       0.296
  YS02001629           JUNCTION      0.00   959.82     0  01:39           0        2.94      -0.013
  YS02001633           JUNCTION    405.46  1313.56     0  01:41       0.846        3.78       0.086
  YS02001641           JUNCTION      0.00  1314.01     0  01:40           0        3.79       0.072
  YS02001644           JUNCTION    349.92  1663.55     0  01:40       0.691        4.47       0.070
  YS02001647           JUNCTION      0.00  1664.02     0  01:40           0        4.46       0.008
  YS02001649           JUNCTION      0.00  2054.88     0  01:41           0        5.11       0.007
  YS02001652           JUNCTION      0.00   433.31     0  01:41           0       0.651      -0.288
  YS02001655           JUNCTION      0.15   359.90     0  01:40     0.00443       0.653       0.247
  YS02001658           JUNCTION      0.00   345.97     0  01:40           0       0.648      -0.012
  YS02001661           JUNCTION      0.00   346.21     0  01:40           0       0.649       0.059
  YS02001664           JUNCTION    346.32   346.32     0  01:40       0.649       0.649      -0.013
  YS02001745           JUNCTION    226.81   226.81     0  01:39        0.38        0.38      -0.006
  YS02001748           JUNCTION      0.04   226.85     0  01:39      0.0013       0.381      -0.013
  YS02001751           JUNCTION      0.01   227.62     0  01:39    0.000317       0.381       0.326
  YS02001754           JUNCTION      0.26   290.93     0  01:43     0.00749       0.387      -0.383
  YS02001757           JUNCTION      0.00  2900.45     0  01:43           0        6.89       0.089
  YS02001759           JUNCTION    323.65   728.59     0  01:43       0.552        1.39      -0.009
  YS02001762           JUNCTION      0.00   435.64     0  01:43           0       0.836       0.016
  YS02001765           JUNCTION      0.00   472.02     0  01:43           0       0.836       0.016
  YS02001767           JUNCTION      0.54   448.69     0  01:43      0.0154       0.836       0.022
  YS02001770           JUNCTION    447.31   458.34     0  01:43       0.822        0.86      -0.003
  YS02001774           JUNCTION      0.00   121.07     0  01:41           0      0.0555       2.175
  YS02001779           JUNCTION      0.01    68.62     0  01:41    0.000144      0.0166       0.089
  YS02001783           JUNCTION      0.00  1076.49     0  01:43           0        2.51       0.009
  YS02001784           JUNCTION      1.06  1077.55     0  01:43      0.0305        2.54       0.018
  YS02001786           JUNCTION      0.06  1077.49     0  01:44     0.00162        2.54       0.025
  YS02001788           JUNCTION      0.07  1075.63     0  01:46     0.00204        2.54       0.012
  YS02001790           JUNCTION      0.15  1086.83     0  01:45     0.00446        2.55       0.037
  YS02001791           JUNCTION      0.00  1164.00     0  01:47           0        2.54      -0.014
  YS02001793           JUNCTION      0.00  1110.68     0  01:47           0        2.55       0.011
  YS02001882           JUNCTION      0.00    54.70     0  01:40           0      0.0125       3.764
  YS02001884           JUNCTION      0.00    96.77     0  01:40           0      0.0481       5.164
  YS02001887           JUNCTION    362.72   362.72     0  01:39       0.582       0.615       0.714
  YS02001890           JUNCTION      0.00   345.72     0  01:40           0       0.575       0.880
  YS02001895           JUNCTION      0.00   346.20     0  01:40           0        0.57       0.286
  YS02001898           JUNCTION      0.00   350.57     0  01:41           0       0.568       0.014
  YS02001901           JUNCTION      0.00   373.31     0  01:41           0       0.571       0.565
  YS02001904           JUNCTION      0.00   374.41     0  01:41           0       0.582       0.472
  YS02001907           JUNCTION      0.00   761.28     0  01:48           0        1.77       0.996
  YS02001910           JUNCTION      0.00   563.41     0  01:49           0        1.19       0.594
  YS02001915           JUNCTION    361.17   562.32     0  01:49       0.709         1.2       0.105
  YS02001918           JUNCTION      0.00   301.75     0  01:49           0       0.492       0.057
  YS02001920           JUNCTION      2.87   278.46     0  01:46      0.0827       0.487       0.207
  YS02001923           JUNCTION      0.04   256.37     0  01:46     0.00109       0.402      -0.063
  YS02001926           JUNCTION      0.05   231.78     0  01:45      0.0015       0.401       0.110
  YS02001929           JUNCTION    180.75   180.75     0  01:42       0.399       0.399      -0.010
  YS02006553           JUNCTION      0.00   761.31     0  01:48           0        1.76       0.661
  YS02006556           JUNCTION      0.00   761.28     0  01:48           0        1.77       0.453
  YS02006558           JUNCTION    442.50  1090.55     0  01:43       0.803        2.54       0.131
  YS02006561           JUNCTION      0.00  1090.62     0  01:43           0        2.51      -0.001
  YS02163301           JUNCTION      0.00   908.35     0  01:40           0        2.94       0.050
  YS02163601           JUNCTION      0.11  1313.75     0  01:41     0.00317        3.78       0.126
  YS02164001           JUNCTION      0.00  1313.72     0  01:41           0        3.78       0.061
  CC-1                 OUTFALL       0.00   683.00     0  00:05           0        2.75       0.000
  CC-2                 OUTFALL       0.00   683.00     0  00:05           0        3.12       0.000
  JK-1                 OUTFALL       0.00  1000.00     0  01:40           0        1.03       0.000
  JK-2                 OUTFALL       0.00  1000.00     0  01:55           0       0.741       0.000
  WSC                  OUTFALL       0.00   554.27     0  02:19           0        3.34       0.000
  CC-storage           STORAGE       0.00  2680.26     0  01:42           0        9.11      -0.302
  JK-storage           STORAGE       0.00  1109.16     0  01:47           0         2.7      -0.599
  
  
  **********************
  Node Surcharge Summary
  **********************
  
  Surcharging occurs when water rises above the top of the highest conduit.
  ---------------------------------------------------------------------
                                               Max. Height   Min. Depth
                                   Hours       Above Crown    Below Rim
  Node                 Type      Surcharged         Meters       Meters
  ---------------------------------------------------------------------
  WS02006109           JUNCTION        0.71          0.609        1.211
  WS02006110           JUNCTION        0.29          0.668        1.182
  WS02006111           JUNCTION        0.01          0.087        1.783
  WS02006112           JUNCTION        0.29          1.680        0.000
  WS02006113           JUNCTION        0.01          0.600        1.330
  WS02006115           JUNCTION        0.01          0.642        1.608
  WS02006116           JUNCTION        0.01          0.000        2.290
  WS02006228           JUNCTION        0.70          0.903        1.297
  WS02006229           JUNCTION        0.71          1.005        1.445
  WS02006230           JUNCTION        0.29          1.063        0.507
  WS02006231           JUNCTION        0.35          1.104        0.426
  WS02006232           JUNCTION        0.74          1.115        0.365
  WS02006234           JUNCTION        0.52          0.915        0.325
  WS02006235           JUNCTION        0.69          1.203        0.087
  WS02006238           JUNCTION        0.71          1.264        0.166
  WS02006239           JUNCTION        0.70          1.212        0.078
  WS02006240           JUNCTION        0.70          1.231        0.159
  WS02006242           JUNCTION        0.76          0.820        0.000
  WS02006243           JUNCTION        0.66          0.770        0.000
  WS02006245           JUNCTION        0.65          0.623        0.227
  WS02006247           JUNCTION        0.65          0.563        0.197
  WS02006248           JUNCTION        0.64          0.380        0.000
  WS02006249           JUNCTION        0.64          0.390        0.000
  WS02006251           JUNCTION        0.36          0.775        0.405
  WS02006252           JUNCTION        0.87          1.100        0.000
  WS02006256           JUNCTION        4.53          2.050        0.000
  YS02001580           JUNCTION        0.20          0.450        0.000
  YS02001583           JUNCTION        0.21          0.497        0.003
  YS02001586           JUNCTION        0.36          0.510        0.000
  YS02001590           JUNCTION        0.43          0.750        0.000
  YS02001593           JUNCTION        0.43          0.840        0.000
  YS02001596           JUNCTION        0.52          1.057        0.013
  YS02001600           JUNCTION        0.64          1.190        0.000
  YS02001601           JUNCTION        0.98          1.440        0.000
  YS02001602           JUNCTION        0.86          1.270        0.000
  YS02001605           JUNCTION        0.81          1.180        0.000
  YS02001607           JUNCTION        0.36          0.680        0.000
  YS02001610           JUNCTION        0.39          0.680        0.000
  YS02001613           JUNCTION        0.35          0.665        0.035
  YS02001616           JUNCTION        0.31          0.610        0.000
  YS02001619           JUNCTION        0.30          0.610        0.000
  YS02001622           JUNCTION        0.29          0.620        0.000
  YS02001625           JUNCTION        0.47          0.780        0.000
  YS02001629           JUNCTION        0.21          0.470        0.000
  YS02001633           JUNCTION        0.48          0.844        0.216
  YS02001641           JUNCTION        0.39          0.419        0.681
  YS02001644           JUNCTION        0.33          0.342        0.578
  YS02001647           JUNCTION        0.01          0.014        0.886
  YS02001649           JUNCTION        0.11          0.121        0.929
  YS02001757           JUNCTION        0.09          0.227        0.983
  YS02001783           JUNCTION        0.24          0.300        1.300
  YS02001784           JUNCTION        0.21          0.213        1.277
  YS02001786           JUNCTION        0.03          0.012        1.418
  YS02001882           JUNCTION        0.17          0.695        0.135
  YS02001884           JUNCTION        0.18          0.720        0.150
  YS02001887           JUNCTION        0.22          0.778        0.172
  YS02001890           JUNCTION        0.24          0.760        0.000
  YS02001895           JUNCTION        0.15          0.527        0.223
  YS02001898           JUNCTION        0.14          0.446        0.294
  YS02001901           JUNCTION        0.21          0.518        0.352
  YS02001904           JUNCTION        0.20          0.401        0.449
  YS02001907           JUNCTION        0.41          0.725        0.225
  YS02001910           JUNCTION        0.27          0.609        0.491
  YS02001915           JUNCTION        0.17          0.723        0.277
  YS02001920           JUNCTION        0.04          0.077        1.063
  YS02006553           JUNCTION        0.42          0.712        0.478
  YS02006556           JUNCTION        0.34          0.613        0.737
  YS02006558           JUNCTION        0.33          0.585        0.815
  YS02163301           JUNCTION        0.46          0.909        0.121
  YS02163601           JUNCTION        0.50          0.704        0.376
  YS02164001           JUNCTION        0.40          0.524        0.576
  
  
  *********************
  Node Flooding Summary
  *********************
  
  Flooding refers to all water that overflows a node, whether it ponds or not.
  --------------------------------------------------------------------------
                                                             Total   Maximum
                                 Maximum   Time of Max       Flood    Ponded
                        Hours       Rate    Occurrence      Volume     Depth
  Node                 Flooded       LPS   days hr:min    10^6 ltr    Meters
  --------------------------------------------------------------------------
  WS02006112              0.01   1547.89      0  00:00       0.047     0.000
  WS02006242              0.01     47.47      0  03:00       0.000     0.000
  WS02006243              0.01     82.17      0  03:00       0.000     0.000
  WS02006248              0.01     10.16      0  02:00       0.000     0.000
  WS02006249              0.35    119.80      0  01:52       0.085     0.000
  WS02006252              0.01      0.91      0  02:55       0.000     0.000
  WS02006256              0.83    290.74      0  02:30       0.244     0.000
  YS02001580              0.01     86.32      0  01:39       0.000     0.000
  YS02001586              0.01    105.00      0  01:39       0.002     0.000
  YS02001590              0.01     72.36      0  01:37       0.000     0.000
  YS02001593              0.01      8.89      0  01:39       0.000     0.000
  YS02001600              0.01      7.45      0  01:39       0.000     0.000
  YS02001601              0.29    415.46      0  01:41       0.256     0.000
  YS02001602              0.03     26.32      0  01:40       0.000     0.000
  YS02001605              0.01      0.52      0  01:39       0.000     0.000
  YS02001607              0.01      9.54      0  01:39       0.000     0.000
  YS02001610              0.01     31.36      0  01:39       0.000     0.000
  YS02001616              0.01     37.83      0  01:39       0.000     0.000
  YS02001619              0.01     67.30      0  01:39       0.000     0.000
  YS02001622              0.01    189.71      0  01:39       0.000     0.000
  YS02001625              0.01     64.40      0  01:39       0.001     0.000
  YS02001629              0.01    252.99      0  01:39       0.001     0.000
  YS02001890              0.01      3.17      0  01:41       0.000     0.000
  
  
  **********************
  Storage Volume Summary
  **********************
  
  ------------------------------------------------------------------------------------------------
                         Average    Avg   Evap  Exfil     Maximum    Max    Time of Max    Maximum
                          Volume   Pcnt   Pcnt   Pcnt      Volume   Pcnt     Occurrence    Outflow
  Storage Unit           1000 m³   Full   Loss   Loss     1000 m³   Full    days hr:min        LPS
  ------------------------------------------------------------------------------------------------
  CC-storage               1.989   31.0    0.0    0.0       3.458   54.0       0  02:10    1766.00
  JK-storage               0.075   25.8    0.0    0.0       0.211   72.5       0  01:53    2300.00
  
  
  ***********************
  Outfall Loading Summary
  ***********************
  
  -----------------------------------------------------------
                         Flow       Avg       Max       Total
                         Freq      Flow      Flow      Volume
  Outfall Node           Pcnt       LPS       LPS    10^6 ltr
  -----------------------------------------------------------
  CC-1                  34.01    683.00    683.00       2.746
  CC-2                  36.32    683.00    683.00       3.122
  JK-1                  11.06   1000.00   1000.00       1.026
  JK-2                   4.78   1000.00   1000.00       0.741
  WSC                   99.99    184.04    554.27       3.338
  -----------------------------------------------------------
  System                37.23   3550.04   3658.27      10.973
  
  
  ********************
  Link Flow Summary
  ********************
  
  -----------------------------------------------------------------------------
                                 Maximum  Time of Max   Maximum    Max/    Max/
                                  |Flow|   Occurrence   |Veloc|    Full    Full
  Link                 Type          LPS  days hr:min     m/sec    Flow   Depth
  -----------------------------------------------------------------------------
  1                    CONDUIT    554.27     0  02:19      2.83    0.19    0.30
  WS02003060WS02003069 CONDUIT    552.38     0  02:18      1.64    0.22    0.34
  WS02003066WSF200     CONDUIT    535.86     0  02:17      2.85    0.09    0.22
  WS02003067WS02003066 CONDUIT    535.84     0  02:17      1.21    0.17    0.42
  WS02003069WS02003072 CONDUIT    552.61     0  02:18      1.37    0.27    0.39
  WS02003072WS02003073 CONDUIT    552.55     0  02:19      1.43    1.19    0.37
  WS02004401WS02004402 CONDUIT   1171.33     0  00:01      2.51    1.41    0.86
  WS02004402WS02004403 CONDUIT    884.75     0  00:01      2.16    1.27    0.88
  WS02004403WS02004404 CONDUIT    832.43     0  00:01      1.96    0.60    0.93
  WS02004404WS02004405 CONDUIT    776.45     0  00:01      2.26    7.61    0.96
  WS02004405WS02004406 CONDUIT    711.76     0  00:02      2.15    1.40    0.96
  WS02004406WS02004407 CONDUIT    536.28     0  02:15      1.04    0.24    0.63
  WS02004407WS02004409 CONDUIT    536.22     0  02:15      1.95    0.19    0.48
  WS02004409WS02004410 CONDUIT    536.06     0  02:16      1.31    0.69    0.67
  WS02004410WS02004411 CONDUIT    535.97     0  02:16      1.19    0.73    0.69
  WS02004411WS02004412 CONDUIT    535.89     0  02:16      1.09    0.76    0.69
  WS02004412WS02004413 CONDUIT    535.90     0  02:17      1.11    0.36    0.78
  WS02004413WS02003067 CONDUIT    535.82     0  02:17      1.11    0.23    0.59
  WS02006109WS02006110 CONDUIT   1306.78     0  00:00      3.14    2.51    1.00
  WS02006110WS02006113 CONDUIT    570.89     0  02:01      1.39    0.52    1.00
  WS02006111WS02006112 CONDUIT   2307.30     0  00:00      9.18    1.10    0.91
  WS02006112WS02006115 CONDUIT    899.27     0  00:00      1.16    0.53    1.00
  WS02006113WS02006111 CONDUIT   1176.04     0  00:00      2.47    1.41    1.00
  WS02006115WS02006116 CONDUIT   1098.16     0  00:01      1.72    1.41    1.00
  WS02006116WS02004401 CONDUIT   1677.78     0  00:00      2.92    2.31    0.84
  WS02006228WS02006109 CONDUIT    563.26     0  02:00      1.40    2.46    1.00
  WS02006229WS02006228 CONDUIT    563.50     0  02:00      1.24    1.87    1.00
  WS02006230WS02006229 CONDUIT    563.53     0  02:00      1.46   12.54    1.00
  WS02006231WS02006230 CONDUIT    571.11     0  02:25      1.55    8.66    1.00
  WS02006232WS02006231 CONDUIT    570.77     0  02:25      1.49    1.20    1.00
  WS02006234WS02006232 CONDUIT    569.66     0  02:25      1.48    1.15    1.00
  WS02006235WS02006234 CONDUIT    565.44     0  02:25      1.47    5.97    1.00
  WS02006238WS02006235 CONDUIT    422.98     0  01:55      1.52    0.94    1.00
  WS02006239WS02006238 CONDUIT    422.36     0  01:55      1.10    1.35    1.00
  WS02006240WS02006239 CONDUIT    421.09     0  01:55      1.10    1.33    1.00
  WS02006242WS02006240 CONDUIT    418.03     0  01:55      1.09    1.66    1.00
  WS02006243WS02006242 CONDUIT    417.84     0  01:55      1.15    0.89    1.00
  WS02006245WS02006243 CONDUIT    418.68     0  01:55      1.27    1.24    1.00
  WS02006247WS02006245 CONDUIT    419.05     0  01:55      1.24    3.32    1.00
  WS02006248WS02006247 CONDUIT    418.68     0  01:55      1.28    0.91    1.00
  WS02006249WS02006248 CONDUIT    418.61     0  01:55      1.31    2.29    1.00
  WS02006251WS02006249 CONDUIT    437.56     0  01:52      1.73    1.26    1.00
  WS02006252WS02006251 CONDUIT    411.66     0  01:52     17.52    1.51    1.00
  WS02006256WS02006235 CONDUIT    289.26     0  00:05      4.25    3.06    1.00
  WSF200WS02003060     CONDUIT    535.91     0  02:18      2.06    0.12    0.28
  YS02001580YS02001583 CONDUIT    138.37     0  01:38      0.84    0.54    1.00
  YS02001583YS02001586 CONDUIT    181.72     0  01:38      0.86    0.27    1.00
  YS02001586YS02001590 CONDUIT    291.88     0  01:43      1.33    0.51    1.00
  YS02001590YS02001593 CONDUIT    291.89     0  01:43      1.05    1.83    1.00
  YS02001593YS02001596 CONDUIT    291.90     0  01:43      1.71    0.46    1.00
  YS02001596YS02001600 CONDUIT    291.92     0  01:43      1.18    0.57    1.00
  YS02001600YS02001601 CONDUIT    291.93     0  01:43      1.03    0.50    1.00
  YS02001601YS02001602 CONDUIT    583.44     0  01:39      2.06    2.11    1.00
  YS02001602YS02001605 CONDUIT    583.61     0  01:39      2.06   12.35    1.00
  YS02001605YS02001607 CONDUIT    583.44     0  01:39      2.06    3.20    1.00
  YS02001607YS02001610 CONDUIT    559.97     0  01:38      0.76    0.53    1.00
  YS02001610YS02001613 CONDUIT    521.06     0  01:38      0.71    0.60    1.00
  YS02001613YS02001616 CONDUIT    512.42     0  01:56      0.70    0.44    1.00
  YS02001616YS02001619 CONDUIT    512.89     0  01:56      0.69    0.89    1.00
  YS02001619YS02001622 CONDUIT    950.73     0  01:39      1.38    1.40    1.00
  YS02001622YS02001625 CONDUIT    956.37     0  01:39      1.22    0.51    1.00
  YS02001625YS02001629 CONDUIT    959.82     0  01:39      1.23    0.46    1.00
  YS02001629YS02163301 CONDUIT    908.35     0  01:40      1.16    1.12    1.00
  YS02001633YS02163601 CONDUIT   1313.64     0  01:41      1.67    1.38    1.00
  YS02001641YS02001644 CONDUIT   1313.87     0  01:41      1.67    4.25    1.00
  YS02001644YS02001647 CONDUIT   1664.02     0  01:40      2.23    0.98    1.00
  YS02001647YS02001649 CONDUIT   1705.55     0  01:42      2.37    0.90    1.00
  YS02001649YS02001757 CONDUIT   2028.63     0  01:41      2.64    1.23    1.00
  YS02001652YS02001649 CONDUIT    416.85     0  01:41      0.92    0.21    0.95
  YS02001655YS02001652 CONDUIT    433.31     0  01:41      1.72    0.21    0.73
  YS02001658YS02001655 CONDUIT    359.74     0  01:40      2.03    0.15    0.44
  YS02001661YS02001658 CONDUIT    345.97     0  01:40      2.19    0.14    0.26
  YS02001664YS02001661 CONDUIT    346.21     0  01:40      2.01    0.11    0.27
  YS02001745YS02001748 CONDUIT    226.81     0  01:39      2.03    0.09    0.20
  YS02001748YS02001751 CONDUIT    227.61     0  01:39      1.70    0.11    0.31
  YS02001751YS02001754 CONDUIT    290.67     0  01:43      1.69    0.14    0.53
  YS02001754YS02001757 CONDUIT    319.36     0  01:43      0.68    0.13    0.86
  YS02001757CaochengTiaoxuchi CONDUIT   2680.26     0  01:42      3.90    1.16    1.00
  YS02001759YS02001757 CONDUIT    692.55     0  01:43      1.11    0.49    0.99
  YS02001762YS02001759 CONDUIT    447.34     0  01:43      0.63    0.52    0.95
  YS02001765YS02001762 CONDUIT    435.64     0  01:43      0.73    0.41    0.92
  YS02001767YS02001765 CONDUIT    472.02     0  01:43      0.90    0.59    0.87
  YS02001770YS02001767 CONDUIT    448.16     0  01:43      0.95    1.78    0.87
  YS02001774YS02001770 CONDUIT    120.92     0  01:41      0.21    0.08    0.90
  YS02001779YS02001774 CONDUIT     68.62     0  01:41      0.13    0.03    0.82
  YS02001783YS02001784 CONDUIT   1076.49     0  01:43      2.14    1.48    1.00
  YS02001784YS02001785 CONDUIT   1077.44     0  01:44      2.15    2.51    1.00
  YS02001786YS02001788 CONDUIT   1075.56     0  01:46      2.38    2.07    0.87
  YS02001788YS02001790 CONDUIT   1086.67     0  01:45      2.63    0.80    0.78
  YS02001790YS02001791 CONDUIT   1164.00     0  01:47      3.29    1.27    0.66
  YS02001791YS02001793 CONDUIT   1110.68     0  01:47      6.57    0.48    0.38
  YS02001793JiankangQianchi CONDUIT   1109.16     0  01:47      2.25    0.09    0.60
  YS02001882YS02001884 CONDUIT     54.70     0  01:40      0.14    0.06    1.00
  YS02001884YS02001887 CONDUIT     96.77     0  01:40      0.14    0.13    1.00
  YS02001887YS02001890 CONDUIT    345.72     0  01:40      0.44    0.59    1.00
  YS02001890YS02001895 CONDUIT    346.20     0  01:40      0.44    0.16    1.00
  YS02001895YS02001898 CONDUIT    350.57     0  01:41      0.47    0.61    1.00
  YS02001898YS02001901 CONDUIT    373.31     0  01:41      0.48    0.24    1.00
  YS02001901YS02001904 CONDUIT    374.41     0  01:41      0.48    0.58    1.00
  YS02001904YS02001907 CONDUIT    376.41     0  01:41      0.48    0.13    1.00
  YS02001907YS02006553 CONDUIT    761.31     0  01:48      0.85    0.90    1.00
  YS02001910YS02001907 CONDUIT    563.69     0  01:49      0.72    0.32    1.00
  YS02001915YS02001910 CONDUIT    563.41     0  01:49      0.72    0.28    1.00
  YS02001918YS02001915 CONDUIT    303.70     0  01:49      0.44    0.17    1.00
  YS02001920YS02001918 CONDUIT    301.75     0  01:49      0.71    0.29    1.00
  YS02001923YS02001920 CONDUIT    275.59     0  01:46      0.87    0.12    0.91
  YS02001926YS02001923 CONDUIT    256.33     0  01:46      0.95    0.37    0.60
  YS02001929YS02001926 CONDUIT    231.73     0  01:45      1.06    0.11    0.49
  YS02006553YS02006556 CONDUIT    761.28     0  01:48      0.97    0.65    1.00
  YS02006556YS02006558 CONDUIT    761.32     0  01:48      0.97    0.60    1.00
  YS02006558YS02006561 CONDUIT   1090.62     0  01:43      3.86    2.41    1.00
  YS02006561YS02001783 CONDUIT   1076.49     0  01:43      2.28    0.56    0.93
  YS02163301YS02001633 CONDUIT    908.43     0  01:41      1.16    0.85    1.00
  YS02163601YS02164001 CONDUIT   1313.72     0  01:41      1.67    1.16    1.00
  YS02164001YS02001641 CONDUIT   1314.01     0  01:40      1.67    1.79    1.00
  CC-R1                PUMP       683.00     0  00:05              1.00
  CC-R2                PUMP       683.00     0  00:05              1.00
  CC-S1                PUMP       200.00     0  00:05              1.00
  CC-S2                PUMP       200.00     0  01:49              1.00
  JK-R1                PUMP      1000.00     0  01:40              1.00
  JK-R2                PUMP      1000.00     0  01:55              1.00
  JK-S                 PUMP       300.00     0  00:05              1.00
  
  
  ***************************
  Flow Classification Summary
  ***************************
  
  -------------------------------------------------------------------------------------
                      Adjusted    ---------- Fraction of Time in Flow Class ---------- 
                       /Actual         Up    Down  Sub   Sup   Up    Down  Norm  Inlet 
  Conduit               Length    Dry  Dry   Dry   Crit  Crit  Crit  Crit  Ltd   Ctrl  
  -------------------------------------------------------------------------------------
  1                       1.00   0.00  0.00  0.00  0.00  1.00  0.00  0.00  0.39  0.00
  WS02003060WS02003069    1.00   0.00  0.00  0.00  0.97  0.03  0.00  0.00  0.84  0.00
  WS02003066WSF200        1.00   0.03  0.00  0.00  0.00  0.97  0.00  0.00  0.91  0.00
  WS02003067WS02003066    1.00   0.02  0.01  0.00  0.97  0.00  0.00  0.00  0.00  0.00
  WS02003069WS02003072    1.00   0.00  0.00  0.00  0.99  0.01  0.00  0.00  0.89  0.00
  WS02003072WS02003073    1.00   0.00  0.00  0.00  0.00  0.00  0.00  1.00  0.00  0.00
  WS02004401WS02004402    1.00   0.00  0.00  0.00  1.00  0.00  0.00  0.00  0.00  0.00
  WS02004402WS02004403    1.00   0.00  0.00  0.00  1.00  0.00  0.00  0.00  0.00  0.00
  WS02004403WS02004404    1.00   0.00  0.00  0.00  1.00  0.00  0.00  0.00  0.00  0.00
  WS02004404WS02004405    1.00   0.00  0.00  0.00  1.00  0.00  0.00  0.00  0.01  0.00
  WS02004405WS02004406    1.00   0.00  0.00  0.00  1.00  0.00  0.00  0.00  0.00  0.00
  WS02004406WS02004407    1.00   0.00  0.00  0.00  1.00  0.00  0.00  0.00  0.00  0.00
  WS02004407WS02004409    1.00   0.00  0.00  0.00  0.98  0.01  0.00  0.00  0.99  0.00
  WS02004409WS02004410    1.00   0.00  0.00  0.00  0.99  0.00  0.00  0.00  0.00  0.00
  WS02004410WS02004411    1.00   0.01  0.00  0.00  0.99  0.00  0.00  0.00  0.00  0.00
  WS02004411WS02004412    1.00   0.01  0.00  0.00  0.99  0.00  0.00  0.00  0.00  0.00
  WS02004412WS02004413    1.00   0.01  0.00  0.00  0.99  0.00  0.00  0.00  0.00  0.00
  WS02004413WS02003067    1.00   0.01  0.01  0.00  0.00  0.00  0.98  0.00  0.00  0.00
  WS02006109WS02006110    1.00   0.00  0.00  0.00  1.00  0.00  0.00  0.00  0.00  0.00
  WS02006110WS02006113    1.00   0.00  0.00  0.00  1.00  0.00  0.00  0.00  0.00  0.00
  WS02006111WS02006112    1.00   0.00  0.00  0.00  1.00  0.00  0.00  0.00  1.00  0.00
  WS02006112WS02006115    1.00   0.00  0.00  0.00  1.00  0.00  0.00  0.00  0.00  0.00
  WS02006113WS02006111    1.00   0.00  0.00  0.00  0.01  0.99  0.00  0.00  0.09  0.00
  WS02006115WS02006116    1.00   0.00  0.00  0.00  1.00  0.00  0.00  0.00  0.00  0.00
  WS02006116WS02004401    1.00   0.00  0.00  0.00  1.00  0.00  0.00  0.00  0.00  0.00
  WS02006228WS02006109    1.00   0.00  0.00  0.00  1.00  0.00  0.00  0.00  0.00  0.00
  WS02006229WS02006228    1.00   0.00  0.00  0.00  1.00  0.00  0.00  0.00  0.00  0.00
  WS02006230WS02006229    1.00   0.00  0.00  0.00  1.00  0.00  0.00  0.00  0.04  0.00
  WS02006231WS02006230    1.00   0.00  0.00  0.00  0.12  0.00  0.88  0.00  0.00  0.00
  WS02006232WS02006231    1.00   0.00  0.00  0.00  0.98  0.00  0.01  0.00  0.00  0.00
  WS02006234WS02006232    1.00   0.00  0.00  0.00  0.99  0.00  0.00  0.00  0.13  0.00
  WS02006235WS02006234    1.00   0.01  0.00  0.00  0.76  0.00  0.23  0.00  0.00  0.00
  WS02006238WS02006235    1.00   0.01  0.00  0.00  0.99  0.00  0.00  0.00  0.00  0.00
  WS02006239WS02006238    1.00   0.01  0.00  0.00  0.99  0.00  0.00  0.00  0.40  0.00
  WS02006240WS02006239    1.00   0.01  0.00  0.00  0.48  0.00  0.00  0.50  0.04  0.00
  WS02006242WS02006240    1.00   0.01  0.00  0.00  0.98  0.00  0.01  0.00  0.01  0.00
  WS02006243WS02006242    1.00   0.01  0.00  0.00  0.98  0.00  0.00  0.01  0.73  0.00
  WS02006245WS02006243    1.00   0.01  0.00  0.00  0.59  0.00  0.00  0.40  0.01  0.00
  WS02006247WS02006245    1.00   0.01  0.00  0.00  0.95  0.00  0.00  0.04  0.00  0.00
  WS02006248WS02006247    1.00   0.01  0.00  0.00  0.97  0.00  0.00  0.02  0.44  0.00
  WS02006249WS02006248    1.00   0.00  0.01  0.00  0.28  0.00  0.71  0.00  0.00  0.00
  WS02006251WS02006249    1.00   0.00  0.00  0.00  0.99  0.01  0.00  0.00  0.73  0.00
  WS02006252WS02006251    1.00   0.01  0.75  0.00  0.04  0.00  0.20  0.00  0.00  0.00
  WS02006256WS02006235    1.00   0.01  0.00  0.00  0.97  0.02  0.00  0.00  0.00  0.00
  WSF200WS02003060        1.00   0.00  0.03  0.00  0.56  0.41  0.00  0.00  0.77  0.00
  YS02001580YS02001583    1.00   0.20  0.65  0.00  0.15  0.00  0.00  0.00  0.74  0.00
  YS02001583YS02001586    1.00   0.51  0.29  0.00  0.20  0.00  0.00  0.00  0.74  0.00
  YS02001586YS02001590    1.00   0.13  0.00  0.00  0.35  0.04  0.00  0.49  0.32  0.00
  YS02001590YS02001593    1.00   0.13  0.01  0.00  0.07  0.00  0.80  0.00  0.00  0.00
  YS02001593YS02001596    1.00   0.14  0.00  0.00  0.08  0.01  0.00  0.78  0.02  0.00
  YS02001596YS02001600    1.00   0.14  0.00  0.00  0.15  0.02  0.00  0.69  0.06  0.00
  YS02001600YS02001601    1.00   0.13  0.01  0.00  0.86  0.00  0.00  0.00  0.64  0.00
  YS02001601YS02001602    1.00   0.13  0.01  0.00  0.86  0.00  0.00  0.00  0.00  0.00
  YS02001602YS02001605    1.00   0.14  0.00  0.00  0.86  0.00  0.00  0.00  0.00  0.00
  YS02001605YS02001607    1.00   0.14  0.00  0.00  0.86  0.00  0.00  0.00  0.00  0.00
  YS02001607YS02001610    1.00   0.13  0.01  0.00  0.86  0.00  0.00  0.00  0.02  0.00
  YS02001610YS02001613    1.00   0.13  0.00  0.00  0.87  0.00  0.00  0.00  0.01  0.00
  YS02001613YS02001616    1.00   0.13  0.00  0.00  0.87  0.00  0.00  0.00  0.01  0.00
  YS02001616YS02001619    1.00   0.13  0.00  0.00  0.87  0.00  0.00  0.00  0.00  0.00
  YS02001619YS02001622    1.00   0.13  0.00  0.00  0.87  0.00  0.00  0.00  0.37  0.00
  YS02001622YS02001625    1.00   0.13  0.00  0.00  0.87  0.00  0.00  0.00  0.05  0.00
  YS02001625YS02001629    1.00   0.13  0.05  0.00  0.10  0.00  0.72  0.00  0.00  0.00
  YS02001629YS02163301    1.00   0.16  0.01  0.00  0.83  0.00  0.00  0.00  0.00  0.00
  YS02001633YS02163601    1.00   0.00  0.01  0.00  0.99  0.00  0.00  0.00  0.15  0.00
  YS02001641YS02001644    1.00   0.00  0.01  0.00  0.99  0.00  0.00  0.00  0.00  0.00
  YS02001644YS02001647    1.00   0.00  0.18  0.00  0.82  0.00  0.00  0.00  0.00  0.00
  YS02001647YS02001649    1.00   0.00  0.18  0.00  0.51  0.31  0.00  0.00  0.61  0.00
  YS02001649YS02001757    1.00   0.00  0.00  0.00  0.67  0.33  0.00  0.00  0.64  0.00
  YS02001652YS02001649    1.00   0.00  0.00  0.00  0.96  0.04  0.00  0.00  0.79  0.00
  YS02001655YS02001652    1.00   0.00  0.00  0.00  0.12  0.02  0.00  0.86  0.08  0.00
  YS02001658YS02001655    1.00   0.00  0.14  0.00  0.60  0.25  0.00  0.00  0.79  0.00
  YS02001661YS02001658    1.00   0.14  0.00  0.00  0.45  0.40  0.00  0.00  0.79  0.00
  YS02001664YS02001661    1.00   0.13  0.00  0.00  0.77  0.11  0.00  0.00  0.87  0.00
  YS02001745YS02001748    1.00   0.00  0.00  0.00  0.00  0.00  0.00  1.00  0.00  0.00
  YS02001748YS02001751    1.00   0.00  0.00  0.00  0.76  0.24  0.00  0.00  0.85  0.00
  YS02001751YS02001754    1.00   0.00  0.00  0.00  0.08  0.00  0.00  0.92  0.04  0.00
  YS02001754YS02001757    1.00   0.00  0.00  0.00  1.00  0.00  0.00  0.00  0.91  0.00
  YS02001757CaochengTiaoxuchi    1.00   0.00  0.00  0.00  0.98  0.02  0.00  0.00  0.90  0.00
  YS02001759YS02001757    1.00   0.00  0.00  0.00  1.00  0.00  0.00  0.00  0.69  0.00
  YS02001762YS02001759    1.00   0.00  0.00  0.00  1.00  0.00  0.00  0.00  0.04  0.00
  YS02001765YS02001762    1.00   0.00  0.00  0.00  1.00  0.00  0.00  0.00  0.78  0.00
  YS02001767YS02001765    1.00   0.00  0.00  0.00  1.00  0.00  0.00  0.00  0.00  0.00
  YS02001770YS02001767    1.00   0.00  0.00  0.00  1.00  0.00  0.00  0.00  0.00  0.00
  YS02001774YS02001770    1.00   0.00  0.14  0.00  0.59  0.00  0.27  0.00  0.03  0.00
  YS02001779YS02001774    1.00   0.00  0.00  0.00  1.00  0.00  0.00  0.00  0.84  0.00
  YS02001783YS02001784    1.00   0.00  0.18  0.00  0.82  0.00  0.00  0.00  0.59  0.00
  YS02001784YS02001785    1.00   0.00  0.00  0.00  1.00  0.00  0.00  0.00  0.17  0.00
  YS02001786YS02001788    1.00   0.00  0.00  0.00  0.79  0.21  0.00  0.00  0.00  0.00
  YS02001788YS02001790    1.00   0.00  0.00  0.00  0.19  0.81  0.00  0.00  0.88  0.00
  YS02001790YS02001791    1.00   0.00  0.00  0.00  0.01  0.99  0.00  0.00  0.17  0.00
  YS02001791YS02001793    1.00   0.00  0.00  0.00  0.00  1.00  0.00  0.00  0.00  0.00
  YS02001793JiankangQianchi    1.00   0.00  0.00  0.00  1.00  0.00  0.00  0.00  1.00  0.00
  YS02001882YS02001884    1.00   0.16  0.01  0.00  0.83  0.00  0.00  0.00  0.00  0.00
  YS02001884YS02001887    1.00   0.06  0.05  0.00  0.89  0.00  0.00  0.00  0.00  0.00
  YS02001887YS02001890    1.00   0.00  0.00  0.00  0.97  0.00  0.03  0.00  0.00  0.00
  YS02001890YS02001895    1.00   0.00  0.17  0.00  0.83  0.00  0.00  0.00  0.00  0.00
  YS02001895YS02001898    1.00   0.17  0.00  0.00  0.81  0.00  0.01  0.00  0.00  0.00
  YS02001898YS02001901    1.00   0.17  0.00  0.00  0.83  0.00  0.00  0.00  0.01  0.00
  YS02001901YS02001904    1.00   0.17  0.00  0.00  0.83  0.00  0.00  0.00  0.00  0.00
  YS02001904YS02001907    1.00   0.00  0.17  0.00  0.83  0.00  0.00  0.00  0.00  0.00
  YS02001907YS02006553    1.00   0.00  0.02  0.00  0.98  0.00  0.00  0.00  0.00  0.00
  YS02001910YS02001907    1.00   0.00  0.00  0.00  0.97  0.00  0.00  0.03  0.12  0.00
  YS02001915YS02001910    1.00   0.00  0.00  0.00  0.96  0.04  0.00  0.00  0.16  0.00
  YS02001918YS02001915    1.00   0.00  0.00  0.00  0.98  0.02  0.00  0.00  0.80  0.00
  YS02001920YS02001918    1.00   0.00  0.00  0.00  1.00  0.00  0.00  0.00  0.01  0.00
  YS02001923YS02001920    1.00   0.00  0.00  0.00  1.00  0.00  0.00  0.00  0.96  0.00
  YS02001926YS02001923    1.00   0.00  0.07  0.00  0.02  0.00  0.90  0.00  0.00  0.00
  YS02001929YS02001926    1.00   0.00  0.13  0.00  0.87  0.00  0.00  0.00  0.86  0.00
  YS02006553YS02006556    1.00   0.01  0.00  0.00  0.99  0.00  0.00  0.00  0.03  0.00
  YS02006556YS02006558    1.00   0.00  0.00  0.00  1.00  0.00  0.00  0.00  0.00  0.00
  YS02006558YS02006561    1.00   0.18  0.00  0.00  0.02  0.80  0.00  0.00  0.20  0.00
  YS02006561YS02001783    1.00   0.18  0.00  0.00  0.05  0.77  0.00  0.00  0.74  0.00
  YS02163301YS02001633    1.00   0.00  0.16  0.00  0.84  0.00  0.00  0.00  0.00  0.00
  YS02163601YS02164001    1.00   0.00  0.08  0.00  0.92  0.00  0.00  0.00  0.00  0.00
  YS02164001YS02001641    1.00   0.01  0.07  0.00  0.92  0.00  0.00  0.00  0.06  0.00
  
  
  *************************
  Conduit Surcharge Summary
  *************************
  
  ----------------------------------------------------------------------------
                                                           Hours        Hours 
                         --------- Hours Full --------   Above Full   Capacity
  Conduit                Both Ends  Upstream  Dnstream   Normal Flow   Limited
  ----------------------------------------------------------------------------
  WS02003072WS02003073        0.01      0.01      0.01      0.43         0.01
  WS02004401WS02004402        0.01      0.01      0.01      0.01         0.01
  WS02004402WS02004403        0.01      0.01      0.01      0.01         0.01
  WS02004404WS02004405        0.01      0.01      0.01      1.97         0.01
  WS02004405WS02004406        0.01      0.01      0.01      0.23         0.01
  WS02006109WS02006110        0.28      0.29      0.73      0.34         0.01
  WS02006110WS02006113        0.01      0.01      0.72      0.01         0.01
  WS02006111WS02006112        0.01      0.01      1.15      0.01         0.01
  WS02006112WS02006115        0.01      0.01      0.28      0.01         0.01
  WS02006113WS02006111        0.01      0.01      0.01      0.01         0.01
  WS02006115WS02006116        0.01      0.01      0.01      0.01         0.01
  WS02006116WS02004401        0.01      0.01      0.01      0.01         0.01
  WS02006228WS02006109        0.71      0.74      0.71      1.54         0.71
  WS02006229WS02006228        0.70      0.71      0.70      1.13         0.70
  WS02006230WS02006229        0.88      1.03      0.88      2.31         0.88
  WS02006231WS02006230        0.29      0.29      0.36      1.93         0.01
  WS02006232WS02006231        0.35      0.35      0.74      0.38         0.01
  WS02006234WS02006232        0.69      0.69      0.74      0.37         0.37
  WS02006235WS02006234        0.52      0.52      0.69      1.85         0.01
  WS02006238WS02006235        0.70      0.70      0.74      0.01         0.01
  WS02006239WS02006238        0.70      0.72      0.70      0.82         0.61
  WS02006240WS02006239        0.70      0.71      0.70      0.77         0.60
  WS02006242WS02006240        0.70      0.70      0.83      0.98         0.01
  WS02006243WS02006242        0.67      0.67      0.76      0.01         0.01
  WS02006245WS02006243        0.65      0.65      0.66      0.44         0.34
  WS02006247WS02006245        0.65      0.66      0.65      1.67         0.64
  WS02006248WS02006247        0.64      0.64      0.65      0.01         0.01
  WS02006249WS02006248        0.63      0.64      0.64      1.64         0.01
  WS02006251WS02006249        0.63      0.63      0.64      0.82         0.61
  WS02006252WS02006251        0.85      0.86      0.87      0.86         0.01
  WS02006256WS02006235        1.85      1.89      4.46      0.86         0.01
  YS02001580YS02001583        0.20      0.20      0.27      0.01         0.01
  YS02001583YS02001586        0.21      0.21      0.36      0.01         0.01
  YS02001586YS02001590        0.37      0.37      0.43      0.01         0.01
  YS02001590YS02001593        0.43      0.43      0.45      0.48         0.01
  YS02001593YS02001596        0.44      0.44      0.52      0.01         0.01
  YS02001596YS02001600        0.55      0.55      0.64      0.01         0.01
  YS02001600YS02001601        0.69      0.69      0.98      0.01         0.01
  YS02001601YS02001602        0.86      0.86      1.03      0.66         0.01
  YS02001602YS02001605        0.81      0.81      0.86      1.86         0.01
  YS02001605YS02001607        0.77      0.81      0.77      0.93         0.77
  YS02001607YS02001610        0.36      0.36      0.39      0.01         0.01
  YS02001610YS02001613        0.35      0.35      0.39      0.01         0.01
  YS02001613YS02001616        0.31      0.31      0.35      0.01         0.01
  YS02001616YS02001619        0.30      0.30      0.31      0.01         0.01
  YS02001619YS02001622        0.29      0.30      0.29      0.47         0.28
  YS02001622YS02001625        0.29      0.29      0.47      0.01         0.01
  YS02001625YS02001629        0.21      0.21      0.47      0.01         0.01
  YS02001629YS02163301        0.46      0.46      0.46      0.34         0.32
  YS02001633YS02163601        0.48      0.48      0.50      0.38         0.38
  YS02001641YS02001644        0.33      0.39      0.33      1.10         0.33
  YS02001644YS02001647        0.01      0.01      0.33      0.01         0.01
  YS02001647YS02001649        0.01      0.01      0.11      0.01         0.01
  YS02001649YS02001757        0.09      0.11      0.09      0.20         0.08
  YS02001652YS02001649        0.01      0.01      0.11      0.01         0.01
  YS02001754YS02001757        0.01      0.01      0.09      0.01         0.01
  YS02001757CaochengTiaoxuchi        0.01      0.09      0.61      0.16         0.01
  YS02001759YS02001757        0.01      0.01      0.09      0.01         0.01
  YS02001770YS02001767        0.01      0.01      0.01      0.32         0.01
  YS02001783YS02001784        0.21      0.24      0.21      0.36         0.21
  YS02001784YS02001785        0.03      0.21      0.03      0.53         0.03
  YS02001786YS02001788        0.01      0.03      0.01      0.43         0.01
  YS02001790YS02001791        0.01      0.01      0.01      0.19         0.01
  YS02001793JiankangQianchi        0.01      0.01      6.83      0.01         0.01
  YS02001882YS02001884        0.17      0.17      0.18      0.01         0.01
  YS02001884YS02001887        0.21      0.21      0.22      0.01         0.01
  YS02001887YS02001890        0.24      0.24      0.25      0.01         0.01
  YS02001890YS02001895        0.15      0.15      0.27      0.01         0.01
  YS02001895YS02001898        0.14      0.14      0.15      0.01         0.01
  YS02001898YS02001901        0.16      0.16      0.21      0.01         0.01
  YS02001901YS02001904        0.20      0.20      0.21      0.01         0.01
  YS02001904YS02001907        0.20      0.20      0.42      0.01         0.01
  YS02001907YS02006553        0.54      0.54      0.59      0.01         0.01
  YS02001910YS02001907        0.27      0.27      0.41      0.01         0.01
  YS02001915YS02001910        0.17      0.17      0.27      0.01         0.01
  YS02001918YS02001915        0.01      0.01      0.17      0.01         0.01
  YS02001920YS02001918        0.01      0.01      0.04      0.01         0.01
  YS02001923YS02001920        0.01      0.01      0.04      0.01         0.01
  YS02006553YS02006556        0.34      0.34      0.42      0.01         0.01
  YS02006556YS02006558        0.38      0.38      0.43      0.01         0.01
  YS02006558YS02006561        0.08      0.33      0.08      0.50         0.08
  YS02006561YS02001783        0.01      0.01      0.24      0.01         0.01
  YS02163301YS02001633        0.46      0.46      0.50      0.01         0.01
  YS02163601YS02164001        0.40      0.40      0.50      0.23         0.01
  YS02164001YS02001641        0.39      0.40      0.39      0.55         0.38
  
  
  ***************
  Pumping Summary
  ***************
  
  ---------------------------------------------------------------------------------------------------------
                                                  Min       Avg       Max     Total     Power    % Time Off
                        Percent   Number of      Flow      Flow      Flow    Volume     Usage    Pump Curve
  Pump                 Utilized   Start-Ups       LPS       LPS       LPS  10^6 ltr     Kw-hr    Low   High
  ---------------------------------------------------------------------------------------------------------
  CC-R1                   14.01          16      0.00    683.00    683.00     2.756     48.08    0.0   52.3
  CC-R2                   15.94          33      0.00    683.00    683.00     3.136     54.46    0.0   65.9
  CC-S1                   20.60           9      0.00    200.00    200.00     1.186      7.39    0.0    0.0
  CC-S2                   12.13          11      0.00    200.00    200.00     0.699      4.40    0.0    0.0
  JK-R1                    3.59          18      0.00   1000.00   1000.00     1.033      9.18    0.0    0.0
  JK-R2                    2.58          11      0.00   1000.00   1000.00     0.743      6.37    0.0    0.0
  JK-S                    10.35          27      0.00    300.00    300.00     0.894     16.44    0.0    0.0
  

  Analysis begun on:  Fri Aug  4 08:52:05 2023
  Analysis ended on:  Fri Aug  4 08:52:09 2023
  Total elapsed time: 00:00:04