
  OWA STORM WATER MANAGEMENT MODEL - VERSION v5.1.14 (OWA 2022-07-31)
  --------------------------------------------------------------

  WARNING 04: minimum elevation drop used for Conduit WS02004404WS02004405
  WARNING 03: negative offset ignored for Link YS02001904YS02001907
  
  *********************************************************
  NOTE: The summary statistics displayed in this report are
  based on results found at every computational time step,  
  not just on results from each reporting time step.
  *********************************************************
  
  ****************
  Analysis Options
  ****************
  Flow Units ............... LPS
  Process Models:
    Rainfall/Runoff ........ YES
    RDII ................... NO
    Snowmelt ............... NO
    Groundwater ............ NO
    Flow Routing ........... YES
    Ponding Allowed ........ NO
    Water Quality .......... NO
  Infiltration Method ...... HORTON
  Flow Routing Method ...... DYNWAVE
  Surcharge Method ......... EXTRAN
  Starting Date ............ 08/28/2015 08:00:00
  Ending Date .............. 08/28/2015 16:00:00
  Antecedent Dry Days ...... 8.0
  Report Time Step ......... 00:01:00
  Wet Time Step ............ 00:01:00
  Dry Time Step ............ 00:01:00
  Routing Time Step ........ 30.00 sec
  Variable Time Step ....... YES
  Maximum Trials ........... 8
  Number of Threads ........ 1
  Head Tolerance ........... 0.001500 m
  
  
  **************************        Volume         Depth
  Runoff Quantity Continuity     hectare-m            mm
  **************************     ---------       -------
  Initial LID Storage ......         0.049         1.488
  Total Precipitation ......         9.020       271.931
  Evaporation Loss .........         0.000         0.000
  Infiltration Loss ........         0.086         2.597
  Surface Runoff ...........         7.961       239.994
  Final Storage ............         1.025        30.901
  Continuity Error (%) .....        -0.026
  
  
  **************************        Volume        Volume
  Flow Routing Continuity        hectare-m      10^6 ltr
  **************************     ---------     ---------
  Dry Weather Inflow .......         0.000         0.000
  Wet Weather Inflow .......         7.963        79.627
  Groundwater Inflow .......         0.000         0.000
  RDII Inflow ..............         0.000         0.000
  External Inflow ..........         0.083         0.834
  External Outflow .........         2.453        24.529
  Flooding Loss ............         5.696        56.961
  Evaporation Loss .........         0.000         0.000
  Exfiltration Loss ........         0.000         0.000
  Initial Stored Volume ....         0.243         2.431
  Final Stored Volume ......         0.178         1.781
  Continuity Error (%) .....        -0.457
  
  
  *************************
  Highest Continuity Errors
  *************************
  Node YS02001884 (3.53%)
  Node YS02001583 (-3.27%)
  Node WS02006256 (-1.50%)
  Node WS02006110 (-1.09%)
  
  
  ***************************
  Time-Step Critical Elements
  ***************************
  Link WS02006252WS02006251 (22.60%)
  Link WS02004404WS02004405 (21.60%)
  Link WS02006238WS02006235 (13.41%)
  Link WS02006235WS02006234 (10.03%)
  Link YS02001791YS02001793 (9.82%)
  
  
  ********************************
  Highest Flow Instability Indexes
  ********************************
  Link WS02006113WS02006111 (45)
  Link WS02006252WS02006251 (28)
  Link WS02006238WS02006235 (28)
  Link YS02001602YS02001605 (27)
  Link YS02001607YS02001610 (27)
  
  
  *************************
  Routing Time Step Summary
  *************************
  Minimum Time Step           :     0.01 sec
  Average Time Step           :     2.56 sec
  Maximum Time Step           :    30.00 sec
  Percent in Steady State     :    -0.00
  Average Iterations per Step :     3.95
  Percent Not Converging      :    22.65
  
  
  ***************************
  Subcatchment Runoff Summary
  ***************************
  
  ------------------------------------------------------------------------------------------------------------------------------
                            Total      Total      Total      Total     Imperv       Perv      Total       Total     Peak  Runoff
                           Precip      Runon       Evap      Infil     Runoff     Runoff     Runoff      Runoff   Runoff   Coeff
  Subcatchment                 mm         mm         mm         mm         mm         mm         mm    10^6 ltr      LPS
  ------------------------------------------------------------------------------------------------------------------------------
  sub60                    316.61       0.00       0.00       1.49     214.17      27.84     283.23        3.72  3170.84   0.895
  sub61                    316.61       0.00       0.00       2.30     213.97      41.71     288.65        5.30  4396.91   0.912
  sub62                    316.61       0.00       0.00       1.01     228.17      18.92     285.64        7.83  6433.88   0.902
  sub63                    316.61       0.00       0.00       4.29     183.27      70.89     286.93        6.51  5268.51   0.906
  sub64                    316.61       0.00       0.00       2.05     208.77      34.96     283.64        6.81  5513.80   0.896
  sub65                    316.61       0.00       0.00       1.88     225.38      31.95     289.53        7.97  6186.52   0.914
  sub66                    316.61       0.00       0.00       5.14     177.44      67.67     282.51       13.17  9635.15   0.892
  sub67                    144.31       0.00       0.00       0.98     106.04       8.33     116.17        2.16  1471.20   0.805
  sub68                    144.31       0.00       0.00       1.72      93.66      13.68     109.55        3.01  1876.88   0.759
  sub69                    316.61       0.00       0.00       1.69     213.21      35.95     286.67       10.61  8339.22   0.905
  sub70                    316.61       0.00       0.00       5.89     170.99      82.25     285.99        8.26  5611.68   0.903
  sub71                    144.31       0.00       0.00       0.91      93.99       7.34     103.99        2.72  1547.86   0.721
  sub72                    144.31       0.00       0.00       0.87     101.57       6.85     110.62        1.52   798.72   0.767
  

  ***********************
  LID Performance Summary
  ***********************

  --------------------------------------------------------------------------------------------------------------------
                                         Total      Evap     Infil   Surface    Drain    Initial     Final  Continuity
                                        Inflow      Loss      Loss   Outflow   Outflow   Storage   Storage       Error
  Subcatchment      LID Control             mm        mm        mm        mm        mm        mm        mm           %
  --------------------------------------------------------------------------------------------------------------------
  sub60             GreenRoof           316.61      0.00      0.00    180.56      0.00      7.05    143.11        0.00
  sub61             GreenRoof           316.61      0.00      0.00    180.56      0.00      7.05    143.11        0.00
  sub62             GreenRoof           316.61      0.00      0.00    180.56      0.00      7.05    143.11        0.00
  sub63             GreenRoof           316.61      0.00      0.00    180.56      0.00      7.05    143.11        0.00
  sub64             GreenRoof           316.61      0.00      0.00    180.56      0.00      7.05    143.11        0.00
  sub65             GreenRoof           316.61      0.00      0.00    180.56      0.00      7.05    143.11        0.00
  sub66             GreenRoof           316.61      0.00      0.00    180.56      0.00      7.05    143.11        0.00
  sub67             GreenRoof           144.31      0.00      0.00      9.29      0.00      7.05    142.07        0.00
  sub68             GreenRoof           144.31      0.00      0.00      9.29      0.00      7.05    142.07        0.00
  sub69             GreenRoof           316.61      0.00      0.00    180.56      0.00      7.05    143.11        0.00
  sub70             GreenRoof           316.61      0.00      0.00    180.56      0.00      7.05    143.11        0.00
  sub71             GreenRoof           144.31      0.00      0.00      9.29      0.00      7.05    142.07        0.00
  sub72             GreenRoof           144.31      0.00      0.00      9.29      0.00      7.05    142.07        0.00
  
  ******************
  Node Depth Summary
  ******************
  
  ---------------------------------------------------------------------------------
                                 Average  Maximum  Maximum  Time of Max    Reported
                                   Depth    Depth      HGL   Occurrence   Max Depth
  Node                 Type       Meters   Meters   Meters  days hr:min      Meters
  ---------------------------------------------------------------------------------
  WS02003060           JUNCTION     0.23     0.38     5.31     0  02:06        0.38
  WS02003066           JUNCTION     0.19     0.30     5.85     0  02:02        0.30
  WS02003067           JUNCTION     0.50     0.70     6.02     0  02:02        0.70
  WS02003069           JUNCTION     0.25     0.43     5.01     0  02:03        0.43
  WS02003072           JUNCTION     0.31     0.50     4.87     0  02:04        0.50
  WS02003073           JUNCTION     0.18     0.30     4.36     0  02:05        0.30
  WS02004401           JUNCTION     0.61     0.87     6.87     0  01:58        0.87
  WS02004402           JUNCTION     0.64     0.90     6.86     0  01:58        0.90
  WS02004403           JUNCTION     0.66     0.92     6.85     0  01:58        0.91
  WS02004404           JUNCTION     0.74     1.02     6.87     0  01:58        1.00
  WS02004405           JUNCTION     0.73     0.97     6.82     0  02:01        0.96
  WS02004406           JUNCTION     0.74     0.96     6.79     0  02:00        0.96
  WS02004407           JUNCTION     0.18     0.30     6.61     0  02:01        0.30
  WS02004409           JUNCTION     0.39     0.67     6.44     0  02:01        0.67
  WS02004410           JUNCTION     0.42     0.68     6.40     0  02:01        0.68
  WS02004411           JUNCTION     0.44     0.69     6.37     0  02:02        0.69
  WS02004412           JUNCTION     0.46     0.70     6.34     0  02:02        0.70
  WS02004413           JUNCTION     0.62     0.86     6.33     0  02:02        0.86
  WS02006109           JUNCTION     0.65     1.56     8.18     0  03:16        1.56
  WS02006110           JUNCTION     0.65     1.69     8.28     0  03:16        1.69
  WS02006111           JUNCTION     0.18     1.67     8.37     0  00:00        0.56
  WS02006112           JUNCTION     0.76     2.68     8.56     0  00:00        1.29
  WS02006113           JUNCTION     0.27     1.50     8.40     0  00:00        0.46
  WS02006115           JUNCTION     0.49     1.69     7.83     0  00:00        0.86
  WS02006116           JUNCTION     0.57     1.11     7.15     0  00:00        0.85
  WS02006228           JUNCTION     0.64     1.64     8.29     0  00:00        1.27
  WS02006229           JUNCTION     0.61     1.54     8.24     0  02:24        1.16
  WS02006230           JUNCTION     0.62     1.85     8.59     0  02:24        1.31
  WS02006231           JUNCTION     0.41     1.40     8.52     0  02:24        1.02
  WS02006232           JUNCTION     0.55     1.96     9.00     0  01:35        1.18
  WS02006234           JUNCTION     0.48     1.61     8.76     0  01:35        1.23
  WS02006235           JUNCTION     0.52     1.71     8.87     0  03:25        1.34
  WS02006238           JUNCTION     0.54     1.77     8.91     0  03:25        1.39
  WS02006239           JUNCTION     0.51     1.73     8.94     0  03:25        1.39
  WS02006240           JUNCTION     0.49     1.87     9.16     0  01:35        1.36
  WS02006242           JUNCTION     0.56     1.55     8.82     0  01:35        1.51
  WS02006243           JUNCTION     0.48     1.48     8.90     0  01:35        1.45
  WS02006245           JUNCTION     0.49     1.41     8.89     0  01:41        1.41
  WS02006247           JUNCTION     0.51     1.31     8.81     0  01:41        1.31
  WS02006248           JUNCTION     0.48     1.10     8.69     0  01:40        1.10
  WS02006249           JUNCTION     0.51     1.09     8.69     0  01:41        1.09
  WS02006251           JUNCTION     0.52     1.54     9.21     0  03:15        1.28
  WS02006252           JUNCTION     0.35     1.50     9.74     0  01:15        0.85
  WS02006256           JUNCTION     1.04     2.35     9.28     0  00:05        2.35
  WSF200               JUNCTION     0.16     0.29     5.52     0  02:05        0.29
  YS02001580           JUNCTION     0.27     1.05     9.59     0  01:25        0.77
  YS02001583           JUNCTION     0.30     1.14     9.64     0  01:25        0.83
  YS02001586           JUNCTION     0.45     1.13     9.30     0  01:25        1.13
  YS02001590           JUNCTION     0.59     1.38     9.24     0  01:25        1.37
  YS02001593           JUNCTION     0.52     1.32     9.18     0  01:25        1.29
  YS02001596           JUNCTION     0.68     1.68     9.10     0  01:25        1.65
  YS02001600           JUNCTION     0.79     1.87     9.00     0  01:24        1.87
  YS02001601           JUNCTION     0.98     2.06     8.90     0  01:24        2.06
  YS02001602           JUNCTION     0.86     1.87     8.77     0  01:24        1.87
  YS02001605           JUNCTION     0.80     1.78     8.68     0  01:47        1.77
  YS02001607           JUNCTION     0.75     1.65     8.50     0  02:27        1.65
  YS02001610           JUNCTION     0.79     1.68     8.48     0  01:40        1.68
  YS02001613           JUNCTION     0.75     1.67     8.51     0  02:35        1.67
  YS02001616           JUNCTION     0.69     1.61     8.52     0  02:15        1.61
  YS02001619           JUNCTION     0.67     1.61     8.54     0  02:13        1.61
  YS02001622           JUNCTION     0.66     1.59     8.49     0  02:28        1.58
  YS02001625           JUNCTION     0.89     1.78     8.38     0  01:40        1.78
  YS02001629           JUNCTION     0.82     1.85     8.40     0  01:50        1.85
  YS02001633           JUNCTION     0.90     2.08     8.53     0  02:21        2.08
  YS02001641           JUNCTION     0.86     1.97     8.41     0  02:42        1.97
  YS02001644           JUNCTION     0.84     1.92     8.35     0  01:51        1.92
  YS02001647           JUNCTION     0.64     1.80     8.41     0  02:36        1.80
  YS02001649           JUNCTION     0.73     2.05     8.44     0  02:18        2.05
  YS02001652           JUNCTION     0.62     2.15     8.75     0  02:35        2.15
  YS02001655           JUNCTION     0.52     2.20     9.05     0  02:27        2.20
  YS02001658           JUNCTION     0.43     2.30     9.44     0  02:29        2.30
  YS02001661           JUNCTION     0.41     2.44     9.85     0  02:36        2.44
  YS02001664           JUNCTION     0.25     2.31    10.23     0  02:29        2.31
  YS02001745           JUNCTION     0.27     2.35     9.87     0  02:35        2.35
  YS02001748           JUNCTION     0.39     2.27     9.35     0  02:33        2.27
  YS02001751           JUNCTION     0.46     2.20     9.08     0  02:34        2.20
  YS02001754           JUNCTION     0.57     2.19     8.80     0  02:34        2.18
  YS02001757           JUNCTION     0.77     2.21     8.47     0  02:27        2.21
  YS02001759           JUNCTION     0.71     2.21     8.57     0  02:24        2.21
  YS02001762           JUNCTION     0.70     2.15     8.55     0  02:27        2.15
  YS02001765           JUNCTION     0.67     2.09     8.54     0  02:36        2.09
  YS02001767           JUNCTION     0.65     2.02     8.51     0  02:35        2.01
  YS02001770           JUNCTION     0.66     1.95     8.44     0  02:13        1.95
  YS02001774           JUNCTION     0.72     2.00     8.42     0  02:18        2.00
  YS02001779           JUNCTION     0.53     1.68     8.37     0  02:01        1.68
  YS02001783           JUNCTION     0.37     1.33     7.48     0  01:23        1.26
  YS02001784           JUNCTION     0.36     1.17     7.24     0  01:23        1.13
  YS02001786           JUNCTION     0.29     1.11     7.14     0  01:23        1.11
  YS02001788           JUNCTION     0.21     0.64     6.62     0  01:23        0.63
  YS02001790           JUNCTION     0.25     0.73     6.38     0  01:24        0.72
  YS02001791           JUNCTION     0.15     0.44     5.91     0  01:24        0.44
  YS02001793           JUNCTION     0.08     0.31     5.14     0  01:25        0.30
  YS02001882           JUNCTION     0.48     1.83     8.55     0  01:22        1.82
  YS02001884           JUNCTION     0.57     1.93     8.55     0  01:22        1.91
  YS02001887           JUNCTION     0.64     2.00     8.54     0  01:24        2.00
  YS02001890           JUNCTION     0.66     1.81     8.32     0  01:22        1.81
  YS02001895           JUNCTION     0.44     1.75     8.50     0  01:22        1.58
  YS02001898           JUNCTION     0.44     1.77     8.51     0  01:22        1.57
  YS02001901           JUNCTION     0.55     1.82     8.43     0  01:22        1.71
  YS02001904           JUNCTION     0.53     1.73     8.36     0  01:24        1.73
  YS02001907           JUNCTION     0.83     1.96     8.25     0  01:22        1.96
  YS02001910           JUNCTION     0.66     2.10     8.61     0  01:22        2.06
  YS02001915           JUNCTION     0.50     2.00     8.72     0  01:22        2.00
  YS02001918           JUNCTION     0.33     1.81     8.88     0  01:23        1.81
  YS02001920           JUNCTION     0.39     2.14     9.15     0  01:23        1.82
  YS02001923           JUNCTION     0.28     2.03     9.29     0  01:23        1.61
  YS02001926           JUNCTION     0.29     1.90     9.35     0  01:23        1.67
  YS02001929           JUNCTION     0.20     1.78     9.47     0  01:23        1.78
  YS02006553           JUNCTION     0.83     2.03     8.32     0  01:24        2.03
  YS02006556           JUNCTION     0.81     2.15     8.46     0  01:24        2.15
  YS02006558           JUNCTION     0.84     2.50     8.77     0  01:24        2.50
  YS02006561           JUNCTION     0.24     1.04     7.70     0  01:23        0.94
  YS02163301           JUNCTION     0.85     1.96     8.48     0  02:22        1.96
  YS02163601           JUNCTION     0.92     2.08     8.48     0  02:36        2.08
  YS02164001           JUNCTION     0.85     1.98     8.44     0  01:50        1.97
  CC-1                 OUTFALL      0.00     0.00     0.00     0  00:00        0.00
  CC-2                 OUTFALL      0.00     0.00     0.00     0  00:00        0.00
  JK-1                 OUTFALL      0.00     0.00     0.00     0  00:00        0.00
  JK-2                 OUTFALL      0.00     0.00     0.00     0  00:00        0.00
  WSC                  OUTFALL      0.18     0.30     0.97     0  02:05        0.30
  CC-storage           STORAGE      1.07     2.30     7.80     0  02:57        2.30
  JK-storage           STORAGE      1.79     4.23     5.03     0  01:49        4.18
  
  
  *******************
  Node Inflow Summary
  *******************
  
  -------------------------------------------------------------------------------------------------
                                  Maximum  Maximum                  Lateral       Total        Flow
                                  Lateral    Total  Time of Max      Inflow      Inflow     Balance
                                   Inflow   Inflow   Occurrence      Volume      Volume       Error
  Node                 Type           LPS      LPS  days hr:min    10^6 ltr    10^6 ltr     Percent
  -------------------------------------------------------------------------------------------------
  WS02003060           JUNCTION     16.53   551.54     0  02:05       0.476        5.57       0.039
  WS02003066           JUNCTION      0.00   534.93     0  02:02           0        5.09       0.025
  WS02003067           JUNCTION      0.00   534.88     0  02:02           0        5.09       0.079
  WS02003069           JUNCTION      0.32   551.87     0  02:03     0.00922        5.57       0.064
  WS02003072           JUNCTION      0.00   551.68     0  02:04           0        5.57       0.116
  WS02003073           JUNCTION      1.82   553.31     0  02:04      0.0524        5.61       0.092
  WS02004401           JUNCTION      0.00  1786.04     0  00:00           0         5.2       0.204
  WS02004402           JUNCTION      0.00  1248.69     0  00:01           0        5.19       0.206
  WS02004403           JUNCTION      0.00   929.44     0  00:01           0        5.18       0.202
  WS02004404           JUNCTION      0.00   877.02     0  00:01           0        5.17       0.139
  WS02004405           JUNCTION      0.00   827.31     0  00:01           0        5.16       0.195
  WS02004406           JUNCTION      0.00   768.45     0  00:02           0        5.15       0.409
  WS02004407           JUNCTION      0.00   538.06     0  02:00           0        5.13       0.017
  WS02004409           JUNCTION      0.00   537.34     0  02:01           0        5.13       0.046
  WS02004410           JUNCTION      0.00   536.33     0  02:01           0        5.12       0.080
  WS02004411           JUNCTION      0.00   535.76     0  02:01           0        5.12       0.104
  WS02004412           JUNCTION      0.00   535.39     0  02:02           0        5.11       0.138
  WS02004413           JUNCTION      0.00   535.13     0  02:02           0        5.11       0.254
  WS02006109           JUNCTION      0.00  1446.81     0  00:00           0        5.09      -0.156
  WS02006110           JUNCTION      0.00   561.28     0  03:15           0        5.07      -1.080
  WS02006111           JUNCTION      0.00  1180.41     0  00:00           0        5.12      -0.835
  WS02006112           JUNCTION      0.00  2307.30     0  00:00           0        5.17      -0.008
  WS02006113           JUNCTION      0.00   573.05     0  03:16           0        5.09      -0.746
  WS02006115           JUNCTION      0.00   953.54     0  00:00           0        5.14      -0.701
  WS02006116           JUNCTION      0.00  1264.47     0  00:00           0        5.17      -0.455
  WS02006228           JUNCTION      0.00   869.18     0  00:00           0        5.07      -0.041
  WS02006229           JUNCTION      0.00   559.51     0  03:15           0        5.06      -0.053
  WS02006230           JUNCTION     10.28   706.67     0  00:00       0.296        5.05      -0.005
  WS02006231           JUNCTION      0.00   576.44     0  03:20           0        4.74      -0.048
  WS02006232           JUNCTION      0.00   574.41     0  03:20           0        4.74       0.122
  WS02006234           JUNCTION      0.00   568.92     0  03:20           0        4.72      -0.152
  WS02006235           JUNCTION      0.00   564.66     0  02:36           0        4.78       0.066
  WS02006238           JUNCTION      0.00   426.23     0  03:46           0        3.96      -0.153
  WS02006239           JUNCTION      0.00   425.99     0  03:46           0        3.92      -0.135
  WS02006240           JUNCTION      0.00   426.06     0  03:46           0         3.9      -0.022
  WS02006242           JUNCTION      0.00   425.41     0  03:46           0        3.88       0.032
  WS02006243           JUNCTION      0.00   424.63     0  03:46           0        3.87      -0.120
  WS02006245           JUNCTION      0.00   424.84     0  03:56           0        3.88       0.232
  WS02006247           JUNCTION      0.00   425.28     0  03:41           0        3.88      -0.004
  WS02006248           JUNCTION      0.00   425.20     0  03:41           0        3.88      -0.022
  WS02006249           JUNCTION      0.00   425.31     0  01:41           0        4.07       0.269
  WS02006251           JUNCTION      0.00   407.14     0  01:41           0        4.07       0.010
  WS02006252           JUNCTION      0.00   400.00     0  01:15           0        4.06      -0.297
  WS02006256           JUNCTION      0.00   300.00     0  00:05           0        1.22      -1.479
  WSF200               JUNCTION      0.00   534.96     0  02:03           0        5.09       0.008
  YS02001580           JUNCTION      0.00    57.40     0  01:25           0     0.00444       1.879
  YS02001583           JUNCTION      0.00    87.52     0  01:25           0      0.0164      -3.162
  YS02001586           JUNCTION   5611.68  5611.68     0  02:36        8.26        8.28      -0.002
  YS02001590           JUNCTION      0.00   318.24     0  03:05           0        2.43      -0.037
  YS02001593           JUNCTION      0.00   318.14     0  03:05           0        2.43       0.008
  YS02001596           JUNCTION      0.00   318.10     0  02:10           0        2.43      -0.007
  YS02001600           JUNCTION      0.00   318.12     0  02:34           0        2.43       0.009
  YS02001601           JUNCTION   8339.22  8657.14     0  02:36        10.6          13      -0.009
  YS02001602           JUNCTION      0.00   501.54     0  01:25           0        3.44       0.009
  YS02001605           JUNCTION      0.00   501.59     0  01:25           0        3.11       0.021
  YS02001607           JUNCTION      0.00   501.42     0  01:25           0        3.11       0.052
  YS02001610           JUNCTION      0.00   955.67     0  02:26           0         4.9       0.043
  YS02001613           JUNCTION      0.00   619.75     0  02:25           0        3.36       0.032
  YS02001616           JUNCTION      0.00   619.60     0  02:25           0        3.37       0.013
  YS02001619           JUNCTION   9635.15  9635.15     0  02:36        13.2        14.8      -0.014
  YS02001622           JUNCTION      0.00  1054.08     0  02:48           0        7.25      -0.002
  YS02001625           JUNCTION      0.00  1505.61     0  02:47           0        8.59       0.140
  YS02001629           JUNCTION      0.00  1139.12     0  02:40           0        5.49      -0.018
  YS02001633           JUNCTION   6186.52  6186.52     0  02:36        7.97        11.1       0.018
  YS02001641           JUNCTION      0.00  1307.52     0  01:38           0        6.75       0.038
  YS02001644           JUNCTION   5513.80  7266.53     0  02:36        6.82        14.9       0.011
  YS02001647           JUNCTION      0.00  1626.85     0  01:38           0         7.6       0.005
  YS02001649           JUNCTION      0.00  3237.04     0  02:36           0        12.4      -0.002
  YS02001652           JUNCTION      0.00  2429.39     0  02:40           0        5.61      -0.026
  YS02001655           JUNCTION      0.00  2731.29     0  02:38           0        5.81       0.013
  YS02001658           JUNCTION      0.00  2783.85     0  02:39           0        5.84      -0.047
  YS02001661           JUNCTION      0.00  2783.92     0  02:37           0        5.84      -0.028
  YS02001664           JUNCTION   5268.51  5268.51     0  02:36        6.52        6.52      -0.009
  YS02001745           JUNCTION   3170.84  3170.84     0  02:36        3.72        3.72       0.028
  YS02001748           JUNCTION      0.00  3116.58     0  02:36           0        3.72      -0.057
  YS02001751           JUNCTION      0.00  2353.91     0  02:36           0        3.61       0.024
  YS02001754           JUNCTION      0.00  2354.40     0  02:35           0        3.61      -0.048
  YS02001757           JUNCTION      0.00  3761.16     0  02:36           0        18.5       0.024
  YS02001759           JUNCTION   4396.91  4396.91     0  02:36         5.3        7.45      -0.013
  YS02001762           JUNCTION      0.00   723.66     0  02:37           0        2.93      -0.005
  YS02001765           JUNCTION      0.00   723.07     0  02:36           0        2.93      -0.002
  YS02001767           JUNCTION      0.00   723.35     0  02:34           0        2.93       0.001
  YS02001770           JUNCTION   6433.88  7156.15     0  02:36        7.83        8.65      -0.025
  YS02001774           JUNCTION      0.00   852.24     0  02:40           0        2.05       0.054
  YS02001779           JUNCTION      0.00   851.92     0  02:45           0        2.01      -0.017
  YS02001783           JUNCTION      0.00  1187.71     0  01:24           0        5.49      -0.003
  YS02001784           JUNCTION      0.00  1187.37     0  01:25           0        5.49       0.000
  YS02001786           JUNCTION      0.00  1187.60     0  01:25           0        5.49       0.004
  YS02001788           JUNCTION      0.00  1188.57     0  01:25           0        5.49       0.001
  YS02001790           JUNCTION      0.00  1214.98     0  01:23           0        5.49       0.027
  YS02001791           JUNCTION      0.00  1304.66     0  01:24           0        5.49      -0.039
  YS02001793           JUNCTION      0.00  1287.07     0  01:25           0        5.49       0.003
  YS02001882           JUNCTION      0.00   150.52     0  01:22           0      0.0135       2.857
  YS02001884           JUNCTION      0.00   147.06     0  01:22           0      0.0502       3.659
  YS02001887           JUNCTION   1471.20  1471.23     0  01:26        2.16         2.2       0.161
  YS02001890           JUNCTION      0.00  1470.92     0  01:26           0        2.15       0.195
  YS02001895           JUNCTION      0.00   584.72     0  01:23           0        1.65       0.096
  YS02001898           JUNCTION      0.00   583.31     0  01:23           0        1.65      -0.068
  YS02001901           JUNCTION      0.00   580.84     0  01:23           0        1.65       0.160
  YS02001904           JUNCTION      0.00   578.80     0  01:23           0        1.67       0.130
  YS02001907           JUNCTION      0.00  3208.97     0  01:27           0        6.07       0.269
  YS02001910           JUNCTION      0.00  1992.45     0  01:32           0        4.15       0.151
  YS02001915           JUNCTION   1547.86  2346.12     0  01:28        2.72        4.29       0.004
  YS02001918           JUNCTION      0.00   932.81     0  01:23           0        1.61      -0.095
  YS02001920           JUNCTION      0.00   873.58     0  01:23           0        1.58       0.001
  YS02001923           JUNCTION      0.00  1225.67     0  01:23           0        1.56      -0.149
  YS02001926           JUNCTION      0.00  1527.90     0  01:23           0        1.54      -0.075
  YS02001929           JUNCTION    798.72   985.94     0  01:23        1.52        1.53      -0.177
  YS02006553           JUNCTION      0.00   783.37     0  02:00           0        3.06       0.361
  YS02006556           JUNCTION      0.00   784.11     0  02:00           0        3.08       0.224
  YS02006558           JUNCTION   1876.88  1876.88     0  01:27        3.01         5.8       0.053
  YS02006561           JUNCTION      0.00  1188.12     0  01:25           0        5.49      -0.003
  YS02163301           JUNCTION      0.00  1138.95     0  02:41           0         5.5       0.022
  YS02163601           JUNCTION      0.00  1308.04     0  01:38           0        6.74       0.072
  YS02164001           JUNCTION      0.00  1307.81     0  01:38           0        6.74       0.029
  CC-1                 OUTFALL       0.00   683.00     0  00:05           0        6.87       0.000
  CC-2                 OUTFALL       0.00   683.00     0  00:05           0        7.66       0.000
  JK-1                 OUTFALL       0.00  1000.00     0  01:24           0        2.36       0.000
  JK-2                 OUTFALL       0.00  1000.00     0  00:05           0        2.03       0.000
  WSC                  OUTFALL       0.00   552.95     0  02:05           0        5.61       0.000
  CC-storage           STORAGE       0.00  2825.42     0  01:59           0        19.9      -0.159
  JK-storage           STORAGE       0.00  1302.77     0  01:30           0        5.64      -0.309
  
  
  **********************
  Node Surcharge Summary
  **********************
  
  Surcharging occurs when water rises above the top of the highest conduit.
  ---------------------------------------------------------------------
                                               Max. Height   Min. Depth
                                   Hours       Above Crown    Below Rim
  Node                 Type      Surcharged         Meters       Meters
  ---------------------------------------------------------------------
  WS02004404           JUNCTION        0.01          0.016        2.764
  WS02006109           JUNCTION        2.52          0.738        1.082
  WS02006110           JUNCTION        0.58          0.785        1.065
  WS02006111           JUNCTION        0.01          0.856        1.014
  WS02006112           JUNCTION        0.75          1.680        0.000
  WS02006113           JUNCTION        0.01          0.705        1.225
  WS02006115           JUNCTION        0.01          0.682        1.568
  WS02006116           JUNCTION        0.01          0.053        2.237
  WS02006228           JUNCTION        2.51          0.810        1.390
  WS02006229           JUNCTION        2.53          0.742        1.708
  WS02006230           JUNCTION        0.59          0.768        0.802
  WS02006231           JUNCTION        0.76          0.685        0.845
  WS02006232           JUNCTION        2.53          1.257        0.223
  WS02006234           JUNCTION        1.43          0.885        0.355
  WS02006235           JUNCTION        2.45          0.998        0.292
  WS02006238           JUNCTION        2.51          1.046        0.384
  WS02006239           JUNCTION        2.48          0.991        0.299
  WS02006240           JUNCTION        2.50          1.160        0.230
  WS02006242           JUNCTION        2.52          0.820        0.000
  WS02006243           JUNCTION        2.41          0.770        0.000
  WS02006245           JUNCTION        2.41          0.696        0.154
  WS02006247           JUNCTION        2.41          0.600        0.160
  WS02006248           JUNCTION        2.40          0.380        0.000
  WS02006249           JUNCTION        2.40          0.390        0.000
  WS02006251           JUNCTION        0.86          0.509        0.671
  WS02006252           JUNCTION        2.63          1.100        0.000
  WS02006256           JUNCTION        6.38          2.050        0.000
  YS02001580           JUNCTION        1.69          0.450        0.000
  YS02001583           JUNCTION        1.70          0.500        0.000
  YS02001586           JUNCTION        1.81          0.510        0.000
  YS02001590           JUNCTION        1.89          0.731        0.019
  YS02001593           JUNCTION        1.89          0.699        0.141
  YS02001596           JUNCTION        2.00          0.949        0.121
  YS02001600           JUNCTION        2.12          1.190        0.000
  YS02001601           JUNCTION        2.34          1.440        0.000
  YS02001602           JUNCTION        2.29          1.270        0.000
  YS02001605           JUNCTION        2.26          1.176        0.004
  YS02001607           JUNCTION        1.90          0.648        0.032
  YS02001610           JUNCTION        1.93          0.680        0.000
  YS02001613           JUNCTION        1.90          0.670        0.030
  YS02001616           JUNCTION        1.86          0.610        0.000
  YS02001619           JUNCTION        1.84          0.610        0.000
  YS02001622           JUNCTION        1.85          0.585        0.035
  YS02001625           JUNCTION        2.04          0.780        0.000
  YS02001629           JUNCTION        1.75          0.470        0.000
  YS02001633           JUNCTION        2.10          1.060        0.000
  YS02001641           JUNCTION        2.07          0.969        0.131
  YS02001644           JUNCTION        2.04          0.920        0.000
  YS02001647           JUNCTION        1.68          0.804        0.096
  YS02001649           JUNCTION        1.83          1.050        0.000
  YS02001652           JUNCTION        1.62          1.122        0.008
  YS02001655           JUNCTION        1.41          1.200        0.000
  YS02001658           JUNCTION        1.13          1.300        0.000
  YS02001661           JUNCTION        0.60          1.374        0.016
  YS02001664           JUNCTION        0.39          1.310        0.000
  YS02001745           JUNCTION        0.40          1.350        0.000
  YS02001748           JUNCTION        1.02          1.190        0.000
  YS02001751           JUNCTION        1.30          1.200        0.000
  YS02001754           JUNCTION        1.52          1.137        0.013
  YS02001757           JUNCTION        1.90          1.210        0.000
  YS02001759           JUNCTION        1.80          1.210        0.000
  YS02001762           JUNCTION        1.77          1.150        0.000
  YS02001765           JUNCTION        1.73          1.092        0.008
  YS02001767           JUNCTION        1.69          1.017        0.013
  YS02001770           JUNCTION        1.67          0.920        0.000
  YS02001774           JUNCTION        1.75          1.002        0.048
  YS02001779           JUNCTION        1.52          0.680        0.000
  YS02001783           JUNCTION        0.86          0.534        1.066
  YS02001784           JUNCTION        0.83          0.368        1.122
  YS02001786           JUNCTION        0.70          0.312        1.118
  YS02001882           JUNCTION        0.79          0.830        0.000
  YS02001884           JUNCTION        0.80          0.870        0.000
  YS02001887           JUNCTION        0.85          0.950        0.000
  YS02001890           JUNCTION        0.87          0.760        0.000
  YS02001895           JUNCTION        0.77          0.750        0.000
  YS02001898           JUNCTION        0.76          0.740        0.000
  YS02001901           JUNCTION        0.83          0.821        0.049
  YS02001904           JUNCTION        0.82          0.732        0.118
  YS02001907           JUNCTION        1.15          0.950        0.000
  YS02001910           JUNCTION        0.90          1.100        0.000
  YS02001915           JUNCTION        0.79          1.000        0.000
  YS02001918           JUNCTION        0.68          0.810        0.000
  YS02001920           JUNCTION        0.70          1.140        0.000
  YS02001923           JUNCTION        0.30          0.820        0.000
  YS02001926           JUNCTION        0.32          0.900        0.000
  YS02001929           JUNCTION        0.18          0.780        0.000
  YS02006553           JUNCTION        1.21          1.032        0.158
  YS02006556           JUNCTION        1.01          1.111        0.239
  YS02006558           JUNCTION        1.00          1.400        0.000
  YS02006561           JUNCTION        0.64          0.243        0.907
  YS02163301           JUNCTION        2.07          0.960        0.070
  YS02163601           JUNCTION        2.15          1.080        0.000
  YS02164001           JUNCTION        2.06          0.981        0.119
  
  
  *********************
  Node Flooding Summary
  *********************
  
  Flooding refers to all water that overflows a node, whether it ponds or not.
  --------------------------------------------------------------------------
                                                             Total   Maximum
                                 Maximum   Time of Max       Flood    Ponded
                        Hours       Rate    Occurrence      Volume     Depth
  Node                 Flooded       LPS   days hr:min    10^6 ltr    Meters
  --------------------------------------------------------------------------
  WS02006112              0.01   1405.86      0  00:00       0.047     0.000
  WS02006242              0.01     36.70      0  01:35       0.000     0.000
  WS02006243              0.01     44.27      0  01:35       0.000     0.000
  WS02006248              0.01     42.53      0  01:40       0.000     0.000
  WS02006249              0.80    107.84      0  01:41       0.186     0.000
  WS02006252              0.01      0.91      0  01:15       0.000     0.000
  WS02006256              1.13    282.19      0  03:15       0.397     0.000
  YS02001580              0.01     31.14      0  01:25       0.000     0.000
  YS02001583              0.01     35.36      0  01:25       0.000     0.000
  YS02001586              1.49   5292.79      0  02:36       5.833     0.000
  YS02001600              0.01      0.38      0  01:25       0.000     0.000
  YS02001601              1.74   8256.99      0  02:36       9.603     0.000
  YS02001602              1.52     62.04      0  03:03       0.329     0.000
  YS02001610              1.44    955.46      0  02:26       3.322     0.000
  YS02001616              0.18      3.63      0  02:41       0.001     0.000
  YS02001619              0.60   7965.41      0  02:36       5.710     0.000
  YS02001625              1.43   1505.34      0  02:47       5.499     0.000
  YS02001629              0.64    686.89      0  02:38       1.070     0.000
  YS02001633              0.33   4142.26      0  02:36       1.905     0.000
  YS02001644              1.02   7264.31      0  02:36       8.712     0.000
  YS02001649              0.39   2390.17      0  02:35       2.136     0.000
  YS02001655              0.21    303.12      0  02:39       0.200     0.000
  YS02001658              0.17     52.23      0  02:36       0.031     0.000
  YS02001664              0.17   2483.97      0  02:36       0.677     0.000
  YS02001745              0.01     64.67      0  02:36       0.001     0.000
  YS02001748              0.08    762.97      0  02:36       0.115     0.000
  YS02001751              0.01      0.43      0  02:34       0.000     0.000
  YS02001757              0.15    618.33      0  02:37       0.211     0.000
  YS02001759              0.18   2266.37      0  02:36       0.656     0.000
  YS02001762              0.07      1.84      0  02:37       0.000     0.000
  YS02001770              0.49   6303.14      0  02:36       4.465     0.000
  YS02001779              0.89    851.56      0  02:45       1.991     0.000
  YS02001882              0.01     20.32      0  01:22       0.000     0.000
  YS02001884              0.01     60.73      0  01:22       0.000     0.000
  YS02001887              0.01      3.67      0  01:24       0.000     0.000
  YS02001890              0.34    949.44      0  01:26       0.498     0.000
  YS02001895              0.01    101.96      0  01:22       0.000     0.000
  YS02001898              0.01    189.00      0  01:22       0.000     0.000
  YS02001907              0.61   3208.92      0  01:27       3.262     0.000
  YS02001910              0.01     28.46      0  01:22       0.000     0.000
  YS02001915              0.12    353.60      0  01:28       0.092     0.000
  YS02001918              0.01    302.07      0  01:24       0.007     0.000
  YS02001920              0.01     32.25      0  01:23       0.000     0.000
  YS02001923              0.01    253.74      0  01:23       0.000     0.000
  YS02001926              0.01    678.85      0  01:23       0.002     0.000
  YS02001929              0.01    899.57      0  01:23       0.010     0.000
  YS02006558              0.01      2.13      0  01:24       0.000     0.000
  YS02163601              0.01      0.70      0  02:36       0.000     0.000
  
  
  **********************
  Storage Volume Summary
  **********************
  
  --------------------------------------------------------------------------------------------------
                         Average     Avg  Evap Exfil       Maximum     Max    Time of Max    Maximum
                          Volume    Pcnt  Pcnt  Pcnt        Volume    Pcnt     Occurrence    Outflow
  Storage Unit           1000 m3    Full  Loss  Loss       1000 m3    Full    days hr:min        LPS
  --------------------------------------------------------------------------------------------------
  CC-storage               2.972      46     0     0         6.409     100       0  02:57    1766.00
  JK-storage               0.090      31     0     0         0.213      73       0  01:49    2300.00
  
  
  ***********************
  Outfall Loading Summary
  ***********************
  
  -----------------------------------------------------------
                         Flow       Avg       Max       Total
                         Freq      Flow      Flow      Volume
  Outfall Node           Pcnt       LPS       LPS    10^6 ltr
  -----------------------------------------------------------
  CC-1                  53.92    683.00    683.00       6.869
  CC-2                  61.84    683.00    683.00       7.656
  JK-1                  12.97   1000.00   1000.00       2.360
  JK-2                  14.91   1000.00   1000.00       2.034
  WSC                   99.99    251.40    552.95       5.609
  -----------------------------------------------------------
  System                48.73   3617.40    552.95      24.529
  
  
  ********************
  Link Flow Summary
  ********************
  
  -----------------------------------------------------------------------------
                                 Maximum  Time of Max   Maximum    Max/    Max/
                                  |Flow|   Occurrence   |Veloc|    Full    Full
  Link                 Type          LPS  days hr:min     m/sec    Flow   Depth
  -----------------------------------------------------------------------------
  1                    CONDUIT    552.95     0  02:05      2.82    0.19    0.30
  WS02003060WS02003069 CONDUIT    551.55     0  02:03      1.64    0.22    0.34
  WS02003066WSF200     CONDUIT    534.96     0  02:03      2.85    0.09    0.22
  WS02003067WS02003066 CONDUIT    534.93     0  02:02      1.20    0.17    0.42
  WS02003069WS02003072 CONDUIT    551.68     0  02:04      1.37    0.27    0.39
  WS02003072WS02003073 CONDUIT    551.49     0  02:04      1.43    1.19    0.37
  WS02004401WS02004402 CONDUIT   1248.69     0  00:01      2.52    1.50    0.89
  WS02004402WS02004403 CONDUIT    929.44     0  00:01      2.21    1.34    0.91
  WS02004403WS02004404 CONDUIT    877.02     0  00:01      2.01    0.63    0.96
  WS02004404WS02004405 CONDUIT    827.31     0  00:01      2.30    8.11    0.98
  WS02004405WS02004406 CONDUIT    768.45     0  00:02      2.19    1.52    0.96
  WS02004406WS02004407 CONDUIT    538.06     0  02:00      1.04    0.24    0.63
  WS02004407WS02004409 CONDUIT    537.34     0  02:01      2.06    0.19    0.48
  WS02004409WS02004410 CONDUIT    536.33     0  02:01      1.39    0.69    0.67
  WS02004410WS02004411 CONDUIT    535.76     0  02:01      1.32    0.73    0.68
  WS02004411WS02004412 CONDUIT    535.39     0  02:02      1.30    0.76    0.69
  WS02004412WS02004413 CONDUIT    535.13     0  02:02      1.26    0.36    0.78
  WS02004413WS02003067 CONDUIT    534.88     0  02:02      1.11    0.23    0.59
  WS02006109WS02006110 CONDUIT   1446.81     0  00:00      2.88    2.78    1.00
  WS02006110WS02006113 CONDUIT    573.05     0  03:16      1.38    0.52    1.00
  WS02006111WS02006112 CONDUIT   2307.30     0  00:00      9.18    1.10    1.00
  WS02006112WS02006115 CONDUIT    953.54     0  00:00      1.24    0.56    1.00
  WS02006113WS02006111 CONDUIT   1180.41     0  00:00      2.47    1.41    1.00
  WS02006115WS02006116 CONDUIT   1264.47     0  00:00      1.74    1.62    1.00
  WS02006116WS02004401 CONDUIT   1786.04     0  00:00      2.94    2.46    0.86
  WS02006228WS02006109 CONDUIT    869.18     0  00:00      1.91    3.80    1.00
  WS02006229WS02006228 CONDUIT    560.22     0  03:15      1.11    1.86    1.00
  WS02006230WS02006229 CONDUIT    696.39     0  00:00      1.89   15.50    1.00
  WS02006231WS02006230 CONDUIT    586.68     0  02:36      1.91    8.90    1.00
  WS02006232WS02006231 CONDUIT    576.44     0  03:20      1.80    1.21    1.00
  WS02006234WS02006232 CONDUIT    574.41     0  03:20      1.49    1.16    1.00
  WS02006235WS02006234 CONDUIT    568.92     0  03:20      1.48    6.00    1.00
  WS02006238WS02006235 CONDUIT    426.88     0  03:46      1.59    0.95    1.00
  WS02006239WS02006238 CONDUIT    426.23     0  03:46      1.11    1.36    1.00
  WS02006240WS02006239 CONDUIT    425.99     0  03:46      1.17    1.34    1.00
  WS02006242WS02006240 CONDUIT    426.06     0  03:46      1.11    1.69    1.00
  WS02006243WS02006242 CONDUIT    425.41     0  03:46      1.21    0.91    1.00
  WS02006245WS02006243 CONDUIT    424.63     0  03:46      1.36    1.26    1.00
  WS02006247WS02006245 CONDUIT    424.84     0  03:56      1.28    3.37    1.00
  WS02006248WS02006247 CONDUIT    425.28     0  03:41      1.31    0.93    1.00
  WS02006249WS02006248 CONDUIT    425.20     0  03:41      1.33    2.33    1.00
  WS02006251WS02006249 CONDUIT    425.31     0  01:41      1.75    1.23    1.00
  WS02006252WS02006251 CONDUIT    407.14     0  01:41     24.96    1.49    1.00
  WS02006256WS02006235 CONDUIT    288.44     0  00:05      4.18    3.05    1.00
  WSF200WS02003060     CONDUIT    535.01     0  02:05      2.06    0.12    0.28
  YS02001580YS02001583 CONDUIT     57.40     0  01:25      0.46    0.22    1.00
  YS02001583YS02001586 CONDUIT     87.52     0  01:25      0.35    0.13    1.00
  YS02001586YS02001590 CONDUIT    318.24     0  03:05      1.24    0.56    1.00
  YS02001590YS02001593 CONDUIT    318.14     0  03:05      1.13    2.00    1.00
  YS02001593YS02001596 CONDUIT    318.10     0  02:10      1.74    0.50    1.00
  YS02001596YS02001600 CONDUIT    318.12     0  02:34      1.27    0.62    1.00
  YS02001600YS02001601 CONDUIT    318.02     0  02:10      1.12    0.55    1.00
  YS02001601YS02001602 CONDUIT    501.54     0  01:25      1.77    1.81    1.00
  YS02001602YS02001605 CONDUIT    501.59     0  01:25      1.77   10.61    1.00
  YS02001605YS02001607 CONDUIT    501.42     0  01:25      1.77    2.75    1.00
  YS02001607YS02001610 CONDUIT    500.13     0  01:25      0.68    0.48    1.00
  YS02001610YS02001613 CONDUIT    619.43     0  02:25      0.79    0.71    1.00
  YS02001613YS02001616 CONDUIT    619.75     0  02:25      0.79    0.53    1.00
  YS02001616YS02001619 CONDUIT    619.60     0  02:25      0.79    1.08    1.00
  YS02001619YS02001622 CONDUIT   1054.08     0  02:48      1.51    1.55    1.00
  YS02001622YS02001625 CONDUIT   1053.82     0  02:47      1.34    0.56    1.00
  YS02001625YS02001629 CONDUIT    930.68     0  01:38      1.18    0.44    1.00
  YS02001629YS02163301 CONDUIT   1139.12     0  02:40      1.45    1.40    1.00
  YS02001633YS02163601 CONDUIT   1308.04     0  01:38      1.67    1.37    1.00
  YS02001641YS02001644 CONDUIT   1307.36     0  01:38      1.66    4.23    1.00
  YS02001644YS02001647 CONDUIT   1626.85     0  01:38      2.12    0.96    1.00
  YS02001647YS02001649 CONDUIT   1627.81     0  01:39      2.29    0.86    1.00
  YS02001649YS02001757 CONDUIT   1875.99     0  01:41      2.51    1.14    1.00
  YS02001652YS02001649 CONDUIT   2429.34     0  02:39      3.09    1.20    1.00
  YS02001655YS02001652 CONDUIT   2429.39     0  02:40      3.09    1.18    1.00
  YS02001658YS02001655 CONDUIT   2731.29     0  02:38      3.48    1.16    1.00
  YS02001661YS02001658 CONDUIT   2783.85     0  02:39      3.54    1.09    1.00
  YS02001664YS02001661 CONDUIT   2783.92     0  02:37      3.54    0.87    1.00
  YS02001745YS02001748 CONDUIT   3116.58     0  02:36      3.97    1.20    1.00
  YS02001748YS02001751 CONDUIT   2353.91     0  02:36      3.00    1.19    1.00
  YS02001751YS02001754 CONDUIT   2354.40     0  02:35      3.00    1.13    1.00
  YS02001754YS02001757 CONDUIT   2353.87     0  02:36      3.00    0.95    1.00
  YS02001757CaochengTiaoxuchi CONDUIT   2825.42     0  01:59      3.60    1.22    1.00
  YS02001759YS02001757 CONDUIT   1472.04     0  02:39      1.87    1.05    1.00
  YS02001762YS02001759 CONDUIT    723.66     0  02:37      0.92    0.83    1.00
  YS02001765YS02001762 CONDUIT    723.07     0  02:36      0.92    0.68    1.00
  YS02001767YS02001765 CONDUIT    723.35     0  02:34      0.92    0.91    1.00
  YS02001770YS02001767 CONDUIT    723.27     0  02:34      0.92    2.86    1.00
  YS02001774YS02001770 CONDUIT    852.24     0  02:40      1.09    0.54    1.00
  YS02001779YS02001774 CONDUIT    851.92     0  02:45      1.08    0.43    1.00
  YS02001783YS02001784 CONDUIT   1187.37     0  01:25      2.36    1.64    1.00
  YS02001784YS02001785 CONDUIT   1187.60     0  01:25      2.36    2.76    1.00
  YS02001786YS02001788 CONDUIT   1188.57     0  01:25      2.52    2.29    0.90
  YS02001788YS02001790 CONDUIT   1214.98     0  01:23      2.80    0.90    0.85
  YS02001790YS02001791 CONDUIT   1304.66     0  01:24      3.45    1.42    0.71
  YS02001791YS02001793 CONDUIT   1287.07     0  01:25      6.79    0.55    0.46
  YS02001793JiankangQianchi CONDUIT   1302.77     0  01:30      2.61    0.10    0.66
  YS02001882YS02001884 CONDUIT    150.52     0  01:22      0.27    0.17    1.00
  YS02001884YS02001887 CONDUIT    134.50     0  01:22      0.22    0.18    1.00
  YS02001887YS02001890 CONDUIT   1470.92     0  01:26      1.87    2.52    1.00
  YS02001890YS02001895 CONDUIT    584.72     0  01:23      0.74    0.27    1.00
  YS02001895YS02001898 CONDUIT    583.31     0  01:23      0.74    1.01    1.00
  YS02001898YS02001901 CONDUIT    580.84     0  01:23      0.74    0.37    1.00
  YS02001901YS02001904 CONDUIT    578.80     0  01:23      0.74    0.90    1.00
  YS02001904YS02001907 CONDUIT    578.63     0  01:23      0.74    0.20    1.00
  YS02001907YS02006553 CONDUIT    783.37     0  02:00      0.87    0.92    1.00
  YS02001910YS02001907 CONDUIT   1992.45     0  01:32      2.54    1.12    1.00
  YS02001915YS02001910 CONDUIT   1992.45     0  01:32      2.54    0.99    1.00
  YS02001918YS02001915 CONDUIT    932.81     0  01:23      1.20    0.51    1.00
  YS02001920YS02001918 CONDUIT    873.58     0  01:23      1.11    0.85    1.00
  YS02001923YS02001920 CONDUIT    888.22     0  01:23      1.16    0.40    1.00
  YS02001926YS02001923 CONDUIT   1176.32     0  01:23      1.66    1.68    1.00
  YS02001929YS02001926 CONDUIT    798.97     0  01:28      1.32    0.38    1.00
  YS02006553YS02006556 CONDUIT    784.11     0  02:00      1.00    0.67    1.00
  YS02006556YS02006558 CONDUIT    784.80     0  02:00      1.00    0.62    1.00
  YS02006558YS02006561 CONDUIT   1188.12     0  01:25      4.21    2.63    1.00
  YS02006561YS02001783 CONDUIT   1187.71     0  01:24      2.36    0.62    1.00
  YS02163301YS02001633 CONDUIT   1138.95     0  02:41      1.45    1.07    1.00
  YS02163601YS02164001 CONDUIT   1307.81     0  01:38      1.67    1.16    1.00
  YS02164001YS02001641 CONDUIT   1307.52     0  01:38      1.66    1.79    1.00
  CC-R1                PUMP       683.00     0  00:05              1.00
  CC-R2                PUMP       683.00     0  00:05              1.00
  CC-S1                PUMP       200.00     0  01:15              1.00
  CC-S2                PUMP       200.00     0  00:05              1.00
  JK-R1                PUMP      1000.00     0  01:24              1.00
  JK-R2                PUMP      1000.00     0  00:05              1.00
  JK-S                 PUMP       300.00     0  00:05              1.00
  
  
  ***************************
  Flow Classification Summary
  ***************************
  
  -------------------------------------------------------------------------------------
                      Adjusted    ---------- Fraction of Time in Flow Class ---------- 
                       /Actual         Up    Down  Sub   Sup   Up    Down  Norm  Inlet 
  Conduit               Length    Dry  Dry   Dry   Crit  Crit  Crit  Crit  Ltd   Ctrl  
  -------------------------------------------------------------------------------------
  1                       1.00   0.00  0.00  0.00  0.00  1.00  0.00  0.00  0.51  0.00
  WS02003060WS02003069    1.00   0.00  0.00  0.00  0.95  0.05  0.00  0.00  0.64  0.00
  WS02003066WSF200        1.00   0.05  0.00  0.00  0.00  0.95  0.00  0.00  0.87  0.00
  WS02003067WS02003066    1.00   0.02  0.02  0.00  0.96  0.00  0.00  0.00  0.00  0.00
  WS02003069WS02003072    1.00   0.00  0.00  0.00  1.00  0.00  0.00  0.00  0.67  0.00
  WS02003072WS02003073    1.00   0.00  0.00  0.00  0.00  0.00  0.00  1.00  0.00  0.00
  WS02004401WS02004402    1.00   0.00  0.00  0.00  1.00  0.00  0.00  0.00  0.00  0.00
  WS02004402WS02004403    1.00   0.00  0.00  0.00  1.00  0.00  0.00  0.00  0.00  0.00
  WS02004403WS02004404    1.00   0.00  0.00  0.00  1.00  0.00  0.00  0.00  0.00  0.00
  WS02004404WS02004405    1.00   0.00  0.00  0.00  1.00  0.00  0.00  0.00  0.01  0.00
  WS02004405WS02004406    1.00   0.00  0.00  0.00  1.00  0.00  0.00  0.00  0.00  0.00
  WS02004406WS02004407    1.00   0.00  0.00  0.00  1.00  0.00  0.00  0.00  0.00  0.00
  WS02004407WS02004409    1.00   0.00  0.00  0.00  0.99  0.01  0.00  0.00  0.99  0.00
  WS02004409WS02004410    1.00   0.00  0.00  0.00  1.00  0.00  0.00  0.00  0.00  0.00
  WS02004410WS02004411    1.00   0.00  0.00  0.00  1.00  0.00  0.00  0.00  0.00  0.00
  WS02004411WS02004412    1.00   0.00  0.00  0.00  0.99  0.00  0.00  0.00  0.00  0.00
  WS02004412WS02004413    1.00   0.00  0.00  0.00  0.99  0.01  0.00  0.00  0.00  0.00
  WS02004413WS02003067    1.00   0.01  0.02  0.00  0.00  0.00  0.98  0.00  0.00  0.00
  WS02006109WS02006110    1.00   0.00  0.00  0.00  1.00  0.00  0.00  0.00  0.00  0.00
  WS02006110WS02006113    1.00   0.00  0.00  0.00  1.00  0.00  0.00  0.00  0.00  0.00
  WS02006111WS02006112    1.00   0.00  0.00  0.00  1.00  0.00  0.00  0.00  1.00  0.00
  WS02006112WS02006115    1.00   0.00  0.00  0.00  1.00  0.00  0.00  0.00  0.00  0.00
  WS02006113WS02006111    1.00   0.00  0.00  0.00  0.00  1.00  0.00  0.00  0.13  0.00
  WS02006115WS02006116    1.00   0.00  0.00  0.00  1.00  0.00  0.00  0.00  0.00  0.00
  WS02006116WS02004401    1.00   0.00  0.00  0.00  1.00  0.00  0.00  0.00  0.00  0.00
  WS02006228WS02006109    1.00   0.00  0.00  0.00  1.00  0.00  0.00  0.00  0.00  0.00
  WS02006229WS02006228    1.00   0.00  0.00  0.00  1.00  0.00  0.00  0.00  0.00  0.00
  WS02006230WS02006229    1.00   0.00  0.00  0.00  1.00  0.00  0.00  0.00  0.02  0.00
  WS02006231WS02006230    1.00   0.00  0.00  0.00  0.46  0.00  0.54  0.00  0.00  0.00
  WS02006232WS02006231    1.00   0.00  0.00  0.00  0.99  0.00  0.01  0.00  0.00  0.00
  WS02006234WS02006232    1.00   0.00  0.00  0.00  1.00  0.00  0.00  0.00  0.07  0.00
  WS02006235WS02006234    1.00   0.00  0.00  0.00  0.86  0.00  0.14  0.00  0.00  0.00
  WS02006238WS02006235    1.00   0.00  0.00  0.00  1.00  0.00  0.00  0.00  0.00  0.00
  WS02006239WS02006238    1.00   0.00  0.00  0.00  1.00  0.00  0.00  0.00  0.27  0.00
  WS02006240WS02006239    1.00   0.01  0.00  0.00  0.73  0.00  0.00  0.26  0.02  0.00
  WS02006242WS02006240    1.00   0.01  0.00  0.00  0.97  0.00  0.02  0.00  0.00  0.00
  WS02006243WS02006242    1.00   0.02  0.00  0.00  0.96  0.00  0.00  0.02  0.56  0.00
  WS02006245WS02006243    1.00   0.01  0.00  0.00  0.83  0.00  0.00  0.16  0.01  0.00
  WS02006247WS02006245    1.00   0.01  0.00  0.00  0.95  0.00  0.00  0.04  0.00  0.00
  WS02006248WS02006247    1.00   0.01  0.00  0.00  0.95  0.00  0.00  0.04  0.43  0.00
  WS02006249WS02006248    1.00   0.01  0.00  0.00  0.67  0.00  0.32  0.00  0.00  0.00
  WS02006251WS02006249    1.00   0.01  0.00  0.00  0.98  0.01  0.00  0.00  0.54  0.00
  WS02006252WS02006251    1.00   0.01  0.26  0.00  0.15  0.00  0.58  0.00  0.00  0.00
  WS02006256WS02006235    1.00   0.00  0.00  0.00  0.98  0.01  0.00  0.00  0.01  0.00
  WSF200WS02003060        1.00   0.00  0.05  0.00  0.30  0.66  0.00  0.00  0.62  0.00
  YS02001580YS02001583    1.00   0.17  0.33  0.00  0.50  0.00  0.00  0.00  0.59  0.00
  YS02001583YS02001586    1.00   0.25  0.16  0.00  0.59  0.00  0.00  0.00  0.59  0.00
  YS02001586YS02001590    1.00   0.10  0.00  0.00  0.70  0.02  0.00  0.17  0.28  0.00
  YS02001590YS02001593    1.00   0.10  0.00  0.00  0.40  0.00  0.49  0.00  0.00  0.00
  YS02001593YS02001596    1.00   0.11  0.00  0.00  0.42  0.01  0.00  0.46  0.01  0.00
  YS02001596YS02001600    1.00   0.11  0.00  0.00  0.49  0.01  0.00  0.39  0.03  0.00
  YS02001600YS02001601    1.00   0.10  0.00  0.00  0.89  0.00  0.00  0.00  0.54  0.00
  YS02001601YS02001602    1.00   0.10  0.00  0.00  0.89  0.00  0.00  0.00  0.00  0.00
  YS02001602YS02001605    1.00   0.11  0.00  0.00  0.89  0.00  0.00  0.00  0.00  0.00
  YS02001605YS02001607    1.00   0.11  0.00  0.00  0.89  0.00  0.00  0.00  0.00  0.00
  YS02001607YS02001610    1.00   0.11  0.00  0.00  0.89  0.00  0.00  0.00  0.00  0.00
  YS02001610YS02001613    1.00   0.10  0.00  0.00  0.90  0.00  0.00  0.00  0.00  0.00
  YS02001613YS02001616    1.00   0.10  0.00  0.00  0.90  0.00  0.00  0.00  0.00  0.00
  YS02001616YS02001619    1.00   0.10  0.00  0.00  0.90  0.00  0.00  0.00  0.00  0.00
  YS02001619YS02001622    1.00   0.10  0.00  0.00  0.87  0.02  0.00  0.00  0.29  0.00
  YS02001622YS02001625    1.00   0.10  0.00  0.00  0.89  0.00  0.00  0.00  0.01  0.00
  YS02001625YS02001629    1.00   0.10  0.01  0.00  0.46  0.00  0.42  0.00  0.00  0.00
  YS02001629YS02163301    1.00   0.11  0.00  0.00  0.89  0.00  0.00  0.00  0.00  0.00
  YS02001633YS02163601    1.00   0.11  0.00  0.00  0.89  0.00  0.00  0.00  0.00  0.00
  YS02001641YS02001644    1.00   0.10  0.00  0.00  0.90  0.00  0.00  0.00  0.00  0.00
  YS02001644YS02001647    1.00   0.10  0.01  0.00  0.89  0.00  0.00  0.00  0.00  0.00
  YS02001647YS02001649    1.00   0.11  0.00  0.00  0.70  0.19  0.00  0.00  0.54  0.00
  YS02001649YS02001757    1.00   0.00  0.11  0.00  0.67  0.23  0.00  0.00  0.10  0.00
  YS02001652YS02001649    1.00   0.11  0.00  0.00  0.88  0.01  0.00  0.00  0.52  0.00
  YS02001655YS02001652    1.00   0.11  0.00  0.00  0.50  0.00  0.00  0.40  0.03  0.00
  YS02001658YS02001655    1.00   0.11  0.00  0.00  0.77  0.12  0.00  0.00  0.57  0.00
  YS02001661YS02001658    1.00   0.11  0.00  0.00  0.55  0.34  0.00  0.00  0.59  0.00
  YS02001664YS02001661    1.00   0.10  0.00  0.00  0.70  0.19  0.00  0.00  0.75  0.00
  YS02001745YS02001748    1.00   0.10  0.00  0.00  0.33  0.01  0.00  0.56  0.05  0.00
  YS02001748YS02001751    1.00   0.10  0.00  0.00  0.77  0.13  0.00  0.00  0.55  0.00
  YS02001751YS02001754    1.00   0.10  0.00  0.00  0.48  0.01  0.00  0.41  0.04  0.00
  YS02001754YS02001757    1.00   0.00  0.10  0.00  0.89  0.00  0.00  0.00  0.54  0.00
  YS02001757CaochengTiaoxuchi    1.00   0.00  0.00  0.00  0.91  0.09  0.00  0.00  0.66  0.00
  YS02001759YS02001757    1.00   0.00  0.10  0.00  0.89  0.01  0.00  0.00  0.50  0.00
  YS02001762YS02001759    1.00   0.10  0.00  0.00  0.89  0.00  0.00  0.00  0.00  0.00
  YS02001765YS02001762    1.00   0.11  0.00  0.00  0.89  0.00  0.00  0.00  0.51  0.00
  YS02001767YS02001765    1.00   0.10  0.00  0.00  0.90  0.00  0.00  0.00  0.00  0.00
  YS02001770YS02001767    1.00   0.10  0.00  0.00  0.90  0.00  0.00  0.00  0.00  0.00
  YS02001774YS02001770    1.00   0.11  0.00  0.00  0.75  0.00  0.15  0.00  0.00  0.00
  YS02001779YS02001774    1.00   0.11  0.24  0.00  0.66  0.00  0.00  0.00  0.52  0.00
  YS02001783YS02001784    1.00   0.15  0.00  0.00  0.85  0.00  0.00  0.00  0.56  0.00
  YS02001784YS02001785    1.00   0.15  0.00  0.00  0.85  0.00  0.00  0.00  0.41  0.00
  YS02001786YS02001788    1.00   0.15  0.00  0.00  0.60  0.25  0.00  0.00  0.00  0.00
  YS02001788YS02001790    1.00   0.15  0.00  0.00  0.22  0.63  0.00  0.00  0.61  0.00
  YS02001790YS02001791    1.00   0.15  0.00  0.00  0.01  0.84  0.00  0.00  0.15  0.00
  YS02001791YS02001793    1.00   0.16  0.00  0.00  0.00  0.84  0.00  0.00  0.01  0.00
  YS02001793JiankangQianchi    1.00   0.00  0.16  0.00  0.75  0.09  0.00  0.00  0.78  0.00
  YS02001882YS02001884    1.00   0.11  0.00  0.00  0.89  0.00  0.00  0.00  0.00  0.00
  YS02001884YS02001887    1.00   0.11  0.00  0.00  0.89  0.00  0.00  0.00  0.00  0.00
  YS02001887YS02001890    1.00   0.10  0.00  0.00  0.89  0.00  0.00  0.00  0.00  0.00
  YS02001890YS02001895    1.00   0.11  0.01  0.00  0.89  0.00  0.00  0.00  0.00  0.00
  YS02001895YS02001898    1.00   0.11  0.00  0.00  0.85  0.00  0.04  0.00  0.00  0.00
  YS02001898YS02001901    1.00   0.12  0.00  0.00  0.87  0.01  0.00  0.00  0.00  0.00
  YS02001901YS02001904    1.00   0.12  0.01  0.00  0.87  0.00  0.00  0.00  0.00  0.00
  YS02001904YS02001907    1.00   0.10  0.03  0.00  0.87  0.00  0.00  0.00  0.00  0.00
  YS02001907YS02006553    1.00   0.10  0.00  0.00  0.89  0.00  0.00  0.00  0.00  0.00
  YS02001910YS02001907    1.00   0.10  0.00  0.00  0.89  0.00  0.00  0.01  0.01  0.00
  YS02001915YS02001910    1.00   0.10  0.00  0.00  0.87  0.03  0.00  0.00  0.01  0.00
  YS02001918YS02001915    1.00   0.10  0.02  0.00  0.88  0.00  0.00  0.00  0.66  0.00
  YS02001920YS02001918    1.00   0.11  0.01  0.00  0.88  0.00  0.00  0.00  0.00  0.00
  YS02001923YS02001920    1.00   0.11  0.00  0.00  0.89  0.00  0.00  0.00  0.74  0.00
  YS02001926YS02001923    1.00   0.10  0.00  0.00  0.19  0.00  0.70  0.00  0.00  0.00
  YS02001929YS02001926    1.00   0.10  0.00  0.00  0.90  0.00  0.00  0.00  0.77  0.00
  YS02006553YS02006556    1.00   0.11  0.00  0.00  0.89  0.00  0.00  0.00  0.00  0.00
  YS02006556YS02006558    1.00   0.10  0.00  0.00  0.89  0.00  0.00  0.00  0.00  0.00
  YS02006558YS02006561    1.00   0.15  0.00  0.00  0.19  0.67  0.00  0.00  0.13  0.00
  YS02006561YS02001783    1.00   0.15  0.00  0.00  0.35  0.51  0.00  0.00  0.63  0.00
  YS02163301YS02001633    1.00   0.10  0.00  0.00  0.89  0.00  0.00  0.00  0.00  0.00
  YS02163601YS02164001    1.00   0.11  0.00  0.00  0.89  0.00  0.00  0.00  0.00  0.00
  YS02164001YS02001641    1.00   0.10  0.00  0.00  0.89  0.00  0.00  0.00  0.00  0.00
  
  
  *************************
  Conduit Surcharge Summary
  *************************
  
  ----------------------------------------------------------------------------
                                                           Hours        Hours 
                         --------- Hours Full --------   Above Full   Capacity
  Conduit                Both Ends  Upstream  Dnstream   Normal Flow   Limited
  ----------------------------------------------------------------------------
  WS02003072WS02003073        0.01      0.01      0.01      1.32         0.01
  WS02004401WS02004402        0.01      0.01      0.01      0.01         0.01
  WS02004402WS02004403        0.01      0.01      0.01      0.02         0.01
  WS02004403WS02004404        0.01      0.01      0.01      0.01         0.01
  WS02004404WS02004405        0.01      0.01      0.01      3.28         0.01
  WS02004405WS02004406        0.01      0.01      0.01      0.48         0.01
  WS02006109WS02006110        0.57      0.57      2.54      0.71         0.01
  WS02006110WS02006113        0.01      0.01      2.53      0.01         0.01
  WS02006111WS02006112        0.01      0.01      2.63      0.01         0.01
  WS02006112WS02006115        0.01      0.01      0.74      0.01         0.01
  WS02006113WS02006111        0.01      0.01      0.01      0.01         0.01
  WS02006115WS02006116        0.01      0.01      0.01      0.01         0.01
  WS02006116WS02004401        0.01      0.01      0.01      0.02         0.01
  WS02006228WS02006109        2.51      2.53      2.52      2.76         2.51
  WS02006229WS02006228        2.51      2.52      2.51      2.63         2.49
  WS02006230WS02006229        2.54      2.60      2.56      3.60         2.54
  WS02006231WS02006230        0.59      0.59      0.83      3.35         0.01
  WS02006232WS02006231        0.74      0.74      2.53      0.86         0.01
  WS02006234WS02006232        2.43      2.44      2.53      0.84         0.82
  WS02006235WS02006234        1.42      1.43      2.45      3.24         0.03
  WS02006238WS02006235        2.47      2.47      2.53      0.01         0.01
  WS02006239WS02006238        2.50      2.52      2.51      2.49         2.18
  WS02006240WS02006239        2.48      2.51      2.48      2.50         2.11
  WS02006242WS02006240        2.50      2.50      2.54      2.58         0.01
  WS02006243WS02006242        2.42      2.42      2.52      0.01         0.07
  WS02006245WS02006243        2.41      2.41      2.41      1.89         1.82
  WS02006247WS02006245        2.41      2.41      2.41      2.95         2.39
  WS02006248WS02006247        2.41      2.41      2.41      0.01         0.07
  WS02006249WS02006248        2.40      2.40      2.40      2.89         0.01
  WS02006251WS02006249        2.40      2.41      2.40      2.53         2.29
  WS02006252WS02006251        2.59      2.59      2.62      2.59         0.01
  WS02006256WS02006235        3.24      3.29      6.31      1.14         0.01
  YS02001580YS02001583        1.69      1.69      1.73      0.01         0.01
  YS02001583YS02001586        1.70      1.70      1.81      0.01         0.01
  YS02001586YS02001590        1.82      1.82      1.89      0.01         0.01
  YS02001590YS02001593        1.89      1.89      1.91      1.89         0.01
  YS02001593YS02001596        1.90      1.90      2.00      0.01         0.01
  YS02001596YS02001600        2.05      2.05      2.12      0.01         0.01
  YS02001600YS02001601        2.16      2.16      2.34      0.01         0.01
  YS02001601YS02001602        2.29      2.29      2.36      2.09         0.01
  YS02001602YS02001605        2.26      2.26      2.29      2.81         0.01
  YS02001605YS02001607        2.23      2.26      2.25      2.22         2.14
  YS02001607YS02001610        1.90      1.90      1.93      0.01         0.01
  YS02001610YS02001613        1.90      1.90      1.93      0.01         0.01
  YS02001613YS02001616        1.86      1.86      1.90      0.01         0.01
  YS02001616YS02001619        1.85      1.85      1.86      0.60         0.44
  YS02001619YS02001622        1.84      1.85      1.85      1.81         1.72
  YS02001622YS02001625        1.85      1.85      2.04      0.01         0.01
  YS02001625YS02001629        1.75      1.75      2.04      0.01         0.01
  YS02001629YS02163301        2.05      2.05      2.07      0.72         0.29
  YS02001633YS02163601        2.10      2.10      2.15      0.44         0.46
  YS02001641YS02001644        2.04      2.07      2.04      2.38         1.97
  YS02001644YS02001647        1.68      1.68      2.04      0.01         0.01
  YS02001647YS02001649        1.68      1.68      1.83      0.01         0.01
  YS02001649YS02001757        1.82      1.83      1.90      0.41         0.22
  YS02001652YS02001649        1.64      1.64      1.83      0.26         0.26
  YS02001655YS02001652        1.41      1.41      1.62      0.25         0.25
  YS02001658YS02001655        1.12      1.12      1.41      0.21         0.21
  YS02001661YS02001658        0.60      0.60      1.12      0.19         0.19
  YS02001664YS02001661        0.39      0.39      0.71      0.01         0.01
  YS02001745YS02001748        0.40      0.40      1.02      0.05         0.05
  YS02001748YS02001751        1.08      1.08      1.30      0.11         0.11
  YS02001751YS02001754        1.30      1.30      1.52      0.10         0.10
  YS02001754YS02001757        1.58      1.58      1.90      0.01         0.01
  YS02001757CaochengTiaoxuchi        1.86      1.90      2.28      1.15         0.96
  YS02001759YS02001757        1.80      1.80      1.90      0.11         0.05
  YS02001762YS02001759        1.77      1.77      1.80      0.01         0.01
  YS02001765YS02001762        1.73      1.73      1.77      0.01         0.01
  YS02001767YS02001765        1.69      1.69      1.73      0.01         0.01
  YS02001770YS02001767        1.69      1.69      1.69      1.52         0.87
  YS02001774YS02001770        1.67      1.67      1.75      0.01         0.01
  YS02001779YS02001774        1.52      1.52      1.75      0.01         0.01
  YS02001783YS02001784        0.83      0.86      0.83      1.04         0.83
  YS02001784YS02001785        0.70      0.83      0.70      1.46         0.70
  YS02001786YS02001788        0.01      0.70      0.01      1.24         0.01
  YS02001790YS02001791        0.01      0.01      0.01      0.81         0.01
  YS02001793JiankangQianchi        0.01      0.01      5.10      0.01         0.01
  YS02001882YS02001884        0.79      0.79      0.80      0.01         0.01
  YS02001884YS02001887        0.83      0.83      0.85      0.01         0.01
  YS02001887YS02001890        0.87      0.87      0.89      0.31         0.01
  YS02001890YS02001895        0.77      0.77      0.90      0.01         0.01
  YS02001895YS02001898        0.76      0.76      0.77      0.01         0.01
  YS02001898YS02001901        0.78      0.78      0.83      0.01         0.01
  YS02001901YS02001904        0.82      0.82      0.83      0.01         0.01
  YS02001904YS02001907        0.82      0.82      1.22      0.01         0.01
  YS02001907YS02006553        1.49      1.49      1.60      0.01         0.01
  YS02001910YS02001907        0.90      0.90      1.15      0.15         0.16
  YS02001915YS02001910        0.79      0.79      0.90      0.01         0.01
  YS02001918YS02001915        0.68      0.68      0.79      0.01         0.01
  YS02001920YS02001918        0.68      0.68      0.70      0.01         0.01
  YS02001923YS02001920        0.62      0.62      0.70      0.01         0.01
  YS02001926YS02001923        0.30      0.30      0.32      0.11         0.01
  YS02001929YS02001926        0.18      0.18      0.32      0.01         0.01
  YS02006553YS02006556        1.01      1.01      1.21      0.01         0.01
  YS02006556YS02006558        1.07      1.07      1.25      0.01         0.01
  YS02006558YS02006561        0.72      1.00      0.72      1.38         0.72
  YS02006561YS02001783        0.64      0.64      0.86      0.01         0.01
  YS02163301YS02001633        2.07      2.07      2.12      0.34         0.01
  YS02163601YS02164001        2.06      2.06      2.15      0.31         0.01
  YS02164001YS02001641        2.06      2.06      2.07      1.15         1.09
  
  
  ***************
  Pumping Summary
  ***************
  
  ---------------------------------------------------------------------------------------------------------
                                                  Min       Avg       Max     Total     Power    % Time Off
                        Percent   Number of      Flow      Flow      Flow    Volume     Usage    Pump Curve
  Pump                 Utilized   Start-Ups       LPS       LPS       LPS  10^6 ltr     Kw-hr    Low   High
  ---------------------------------------------------------------------------------------------------------
  CC-R1                   34.98          16      0.00    683.00    683.00     6.881    133.19    0.0   54.1
  CC-R2                   38.99          19      0.00    683.00    683.00     7.669    146.06    0.0   59.5
  CC-S1                   33.99          20      0.00    200.00    200.00     1.958      9.06    0.0   34.5
  CC-S2                   36.67          13      0.00    200.00    200.00     2.112     10.13    0.0   32.0
  JK-R1                    8.19          17      0.00   1000.00   1000.00     2.360     24.60    0.0    0.0
  JK-R2                    7.07          17      0.00   1000.00   1000.00     2.037     20.58    0.0    0.0
  JK-S                    14.11          29      0.00    300.00    300.00     1.219     18.81    0.0    0.0
  

  Analysis begun on:  Thu Sep  7 21:55:25 2023
  Analysis ended on:  Thu Sep  7 21:55:36 2023
  Total elapsed time: 00:00:11