
  OWA STORM WATER MANAGEMENT MODEL - VERSION v5.2.3 (OWA 2023-06-06)
  ------------------------------------------------------------

  WARNING 04: minimum elevation drop used for Conduit WS02004404WS02004405
  WARNING 03: negative offset ignored for Link YS02001904YS02001907
  
  ****************
  Analysis Options
  ****************
  Flow Units ............... LPS
  Process Models:
    Rainfall/Runoff ........ YES
    RDII ................... NO
    Snowmelt ............... NO
    Groundwater ............ NO
    Flow Routing ........... YES
    Ponding Allowed ........ NO
    Water Quality .......... NO
  Infiltration Method ...... HORTON
  Flow Routing Method ...... DYNWAVE
  Surcharge Method ......... EXTRAN
  Starting Date ............ 08/28/2015 08:00:00
  Ending Date .............. 08/28/2015 16:00:00
  Antecedent Dry Days ...... 8.0
  Report Time Step ......... 00:01:00
  Wet Time Step ............ 00:01:00
  Dry Time Step ............ 00:01:00
  Routing Time Step ........ 30.00 sec
  Variable Time Step ....... YES
  Maximum Trials ........... 8
  Number of Threads ........ 2
  Head Tolerance ........... 0.001500 m
  
  
  **************************        Volume         Depth
  Runoff Quantity Continuity     hectare-m            mm
  **************************     ---------       -------
  Initial LID Storage ......         0.049         1.488
  Total Precipitation ......         1.436        43.293
  Evaporation Loss .........         0.000         0.000
  Infiltration Loss ........         0.073         2.213
  Surface Runoff ...........         1.035        31.188
  Final Storage ............         0.378        11.404
  Continuity Error (%) .....        -0.056
  
  
  **************************        Volume        Volume
  Flow Routing Continuity        hectare-m      10^6 ltr
  **************************     ---------     ---------
  Dry Weather Inflow .......         0.025         0.251
  Wet Weather Inflow .......         1.034        10.342
  Groundwater Inflow .......         0.000         0.000
  RDII Inflow ..............         0.000         0.000
  External Inflow ..........         0.083         0.834
  External Outflow .........         1.130        11.304
  Flooding Loss ............         0.101         1.011
  Evaporation Loss .........         0.000         0.000
  Exfiltration Loss ........         0.000         0.000
  Initial Stored Volume ....         0.243         2.431
  Final Stored Volume ......         0.181         1.811
  Continuity Error (%) .....        -1.941
  
  
  *************************
  Highest Continuity Errors
  *************************
  Node YS02001583 (-5.84%)
  Node YS02001884 (4.60%)
  Node WS02006256 (-1.85%)
  Node YS02001774 (1.83%)
  Node WS02006111 (-1.41%)
  
  
  ***************************
  Time-Step Critical Elements
  ***************************
  Link WS02006252WS02006251 (31.53%)
  Link WS02004404WS02004405 (25.44%)
  Link WS02006238WS02006235 (15.82%)
  Link WS02003066WSF200 (6.72%)
  Link WS02006235WS02006234 (5.33%)
  
  
  ********************************
  Highest Flow Instability Indexes
  ********************************
  Link WS02006113WS02006111 (33)
  Link WS02006256WS02006235 (14)
  Link WS02006238WS02006235 (12)
  Link WS02006111WS02006112 (11)
  Link YS02006558YS02006561 (9)
  
  
  *********************************
  Most Frequent Nonconverging Nodes
  *********************************
  Node CC-1 (9.49%)
  Node CC-2 (9.49%)
  Node JK-1 (9.49%)
  Node JK-2 (9.49%)
  Node WSC (9.49%)
  
  
  *************************
  Routing Time Step Summary
  *************************
  Minimum Time Step           :     0.00 sec
  Average Time Step           :     2.94 sec
  Maximum Time Step           :    30.00 sec
  % of Time in Steady State   :     0.00
  Average Iterations per Step :     2.91
  % of Steps Not Converging   :     9.49
  Time Step Frequencies       :
     30.000 - 13.228 sec      :     0.01 %
     13.228 -  5.833 sec      :    22.17 %
      5.833 -  2.572 sec      :    26.87 %
      2.572 -  1.134 sec      :    14.50 %
      1.134 -  0.500 sec      :    36.45 %
  
  
  ***************************
  Subcatchment Runoff Summary
  ***************************
  
  ------------------------------------------------------------------------------------------------------------------------------
                            Total      Total      Total      Total     Imperv       Perv      Total       Total     Peak  Runoff
                           Precip      Runon       Evap      Infil     Runoff     Runoff     Runoff      Runoff   Runoff   Coeff
  Subcatchment                 mm         mm         mm         mm         mm         mm         mm    10^6 ltr      LPS
  ------------------------------------------------------------------------------------------------------------------------------
  sub60                     43.29       0.00       0.00       1.32      28.47       2.69      31.16        0.41   271.40   0.720
  sub61                     43.29       0.00       0.00       2.03      28.45       3.99      32.44        0.60   394.52   0.749
  sub62                     43.29       0.00       0.00       0.90      30.32       1.83      32.15        0.88   541.41   0.743
  sub63                     43.29       0.00       0.00       3.72      24.37       6.56      30.92        0.70   441.20   0.714
  sub64                     43.29       0.00       0.00       1.79      27.74       3.27      31.01        0.74   439.82   0.716
  sub65                     43.29       0.00       0.00       1.64      29.93       2.99      32.92        0.91   513.24   0.760
  sub66                     43.29       0.00       0.00       4.33      23.54       5.62      29.16        1.36   653.86   0.674
  sub67                     43.29       0.00       0.00       0.89      31.10       1.90      32.99        0.61   423.62   0.762
  sub68                     43.29       0.00       0.00       1.56      27.46       3.06      30.52        0.84   536.66   0.705
  sub69                     43.29       0.00       0.00       1.41      29.08       3.74      32.82        1.22   665.99   0.758
  sub70                     43.29       0.00       0.00       4.72      23.28       7.33      30.62        0.88   379.01   0.707
  sub71                     43.29       0.00       0.00       0.83      27.54       1.65      29.19        0.76   446.81   0.674
  sub72                     43.29       0.00       0.00       0.79      29.74       1.53      31.27        0.43   228.98   0.722
  

  ***********************
  LID Performance Summary
  ***********************

  --------------------------------------------------------------------------------------------------------------------
                                         Total      Evap     Infil   Surface    Drain    Initial     Final  Continuity
                                        Inflow      Loss      Loss   Outflow   Outflow   Storage   Storage       Error
  Subcatchment      LID Control             mm        mm        mm        mm        mm        mm        mm           %
  --------------------------------------------------------------------------------------------------------------------
  sub60             GreenRoof            43.29      0.00      0.00      0.00      0.00      7.05     50.43       -0.17
  sub61             GreenRoof            43.29      0.00      0.00      0.00      0.00      7.05     50.43       -0.17
  sub62             GreenRoof            43.29      0.00      0.00      0.00      0.00      7.05     50.43       -0.17
  sub63             GreenRoof            43.29      0.00      0.00      0.00      0.00      7.05     50.43       -0.17
  sub64             GreenRoof            43.29      0.00      0.00      0.00      0.00      7.05     50.43       -0.17
  sub65             GreenRoof            43.29      0.00      0.00      0.00      0.00      7.05     50.43       -0.17
  sub66             GreenRoof            43.29      0.00      0.00      0.00      0.00      7.05     50.43       -0.17
  sub67             GreenRoof            43.29      0.00      0.00      0.00      0.00      7.05     50.43       -0.17
  sub68             GreenRoof            43.29      0.00      0.00      0.00      0.00      7.05     50.43       -0.17
  sub69             GreenRoof            43.29      0.00      0.00      0.00      0.00      7.05     50.43       -0.17
  sub70             GreenRoof            43.29      0.00      0.00      0.00      0.00      7.05     50.43       -0.17
  sub71             GreenRoof            43.29      0.00      0.00      0.00      0.00      7.05     50.43       -0.17
  sub72             GreenRoof            43.29      0.00      0.00      0.00      0.00      7.05     50.43       -0.17
  
  ******************
  Node Depth Summary
  ******************
  
  ---------------------------------------------------------------------------------
                                 Average  Maximum  Maximum  Time of Max    Reported
                                   Depth    Depth      HGL   Occurrence   Max Depth
  Node                 Type       Meters   Meters   Meters  days hr:min      Meters
  ---------------------------------------------------------------------------------
  WS02003060           JUNCTION     0.18     0.38     5.31     0  02:38        0.38
  WS02003066           JUNCTION     0.16     0.30     5.85     0  02:38        0.30
  WS02003067           JUNCTION     0.43     0.70     6.02     0  02:37        0.70
  WS02003069           JUNCTION     0.20     0.43     5.01     0  02:39        0.43
  WS02003072           JUNCTION     0.26     0.50     4.87     0  02:39        0.50
  WS02003073           JUNCTION     0.14     0.30     4.36     0  02:40        0.30
  WS02004401           JUNCTION     0.52     0.85     6.85     0  02:34        0.85
  WS02004402           JUNCTION     0.56     0.88     6.84     0  02:34        0.88
  WS02004403           JUNCTION     0.58     0.89     6.82     0  02:35        0.89
  WS02004404           JUNCTION     0.66     0.96     6.81     0  02:35        0.96
  WS02004405           JUNCTION     0.66     0.95     6.80     0  02:35        0.95
  WS02004406           JUNCTION     0.67     0.96     6.79     0  02:35        0.95
  WS02004407           JUNCTION     0.14     0.30     6.61     0  02:35        0.30
  WS02004409           JUNCTION     0.31     0.66     6.43     0  02:37        0.66
  WS02004410           JUNCTION     0.34     0.68     6.40     0  02:37        0.68
  WS02004411           JUNCTION     0.36     0.69     6.37     0  02:37        0.69
  WS02004412           JUNCTION     0.39     0.70     6.34     0  02:37        0.69
  WS02004413           JUNCTION     0.55     0.85     6.32     0  02:37        0.85
  WS02006109           JUNCTION     0.56     1.07     7.69     0  02:56        0.97
  WS02006110           JUNCTION     0.57     1.03     7.61     0  02:56        0.92
  WS02006111           JUNCTION     0.14     0.90     7.60     0  00:00        0.40
  WS02006112           JUNCTION     0.67     2.68     8.56     0  00:00        1.14
  WS02006113           JUNCTION     0.21     1.40     8.29     0  00:00        0.46
  WS02006115           JUNCTION     0.40     1.65     7.79     0  00:00        0.86
  WS02006116           JUNCTION     0.49     1.06     7.10     0  00:00        0.83
  WS02006228           JUNCTION     0.54     1.10     7.75     0  02:56        1.01
  WS02006229           JUNCTION     0.51     1.10     7.79     0  02:56        1.02
  WS02006230           JUNCTION     0.49     1.22     7.97     0  02:55        1.17
  WS02006231           JUNCTION     0.31     1.00     8.12     0  03:10        0.93
  WS02006232           JUNCTION     0.43     1.40     8.44     0  03:10        1.16
  WS02006234           JUNCTION     0.35     1.58     8.74     0  03:10        1.21
  WS02006235           JUNCTION     0.38     1.73     8.89     0  03:10        1.33
  WS02006238           JUNCTION     0.40     1.77     8.92     0  03:10        1.37
  WS02006239           JUNCTION     0.36     1.67     8.88     0  03:10        1.37
  WS02006240           JUNCTION     0.32     1.58     8.87     0  03:10        1.34
  WS02006242           JUNCTION     0.37     1.55     8.82     0  03:10        1.40
  WS02006243           JUNCTION     0.29     1.34     8.76     0  03:10        1.27
  WS02006245           JUNCTION     0.29     1.25     8.74     0  03:10        1.22
  WS02006247           JUNCTION     0.30     1.21     8.71     0  03:10        1.20
  WS02006248           JUNCTION     0.27     1.10     8.69     0  02:56        1.10
  WS02006249           JUNCTION     0.30     1.09     8.69     0  02:22        1.09
  WS02006251           JUNCTION     0.30     1.47     9.14     0  02:22        1.16
  WS02006252           JUNCTION     0.23     1.50     9.74     0  02:18        0.71
  WS02006256           JUNCTION     0.99     2.35     9.28     0  00:05        2.35
  WSF200               JUNCTION     0.13     0.29     5.52     0  02:37        0.29
  YS02001580           JUNCTION     0.08     1.05     9.59     0  02:10        0.81
  YS02001583           JUNCTION     0.11     1.01     9.51     0  02:10        0.82
  YS02001586           JUNCTION     0.18     1.13     9.30     0  02:10        1.13
  YS02001590           JUNCTION     0.27     1.40     9.26     0  02:10        1.40
  YS02001593           JUNCTION     0.21     1.34     9.20     0  02:10        1.29
  YS02001596           JUNCTION     0.28     1.69     9.11     0  02:10        1.65
  YS02001600           JUNCTION     0.35     1.87     9.00     0  02:10        1.86
  YS02001601           JUNCTION     0.54     2.06     8.90     0  02:09        2.06
  YS02001602           JUNCTION     0.46     1.87     8.77     0  02:09        1.87
  YS02001605           JUNCTION     0.42     1.78     8.68     0  02:21        1.78
  YS02001607           JUNCTION     0.41     1.65     8.50     0  02:21        1.65
  YS02001610           JUNCTION     0.45     1.68     8.48     0  02:10        1.68
  YS02001613           JUNCTION     0.41     1.67     8.51     0  02:13        1.67
  YS02001616           JUNCTION     0.34     1.61     8.52     0  02:13        1.61
  YS02001619           JUNCTION     0.32     1.61     8.54     0  02:13        1.61
  YS02001622           JUNCTION     0.31     1.57     8.47     0  02:21        1.57
  YS02001625           JUNCTION     0.55     1.78     8.38     0  02:10        1.78
  YS02001629           JUNCTION     0.43     1.85     8.40     0  02:10        1.85
  YS02001633           JUNCTION     0.50     1.99     8.45     0  02:15        1.99
  YS02001641           JUNCTION     0.47     1.86     8.30     0  02:15        1.83
  YS02001644           JUNCTION     0.46     1.85     8.28     0  02:15        1.73
  YS02001647           JUNCTION     0.25     1.56     8.17     0  02:15        1.37
  YS02001649           JUNCTION     0.28     1.66     8.05     0  02:15        1.46
  YS02001652           JUNCTION     0.17     1.74     8.34     0  02:14        1.28
  YS02001655           JUNCTION     0.12     1.76     8.61     0  02:14        1.05
  YS02001658           JUNCTION     0.08     0.76     7.90     0  02:15        0.75
  YS02001661           JUNCTION     0.12     0.43     7.84     0  02:16        0.37
  YS02001664           JUNCTION     0.05     0.25     8.18     0  02:14        0.25
  YS02001745           JUNCTION     0.05     0.22     7.74     0  02:13        0.22
  YS02001748           JUNCTION     0.07     0.65     7.72     0  02:15        0.62
  YS02001751           JUNCTION     0.09     0.84     7.72     0  02:16        0.82
  YS02001754           JUNCTION     0.14     2.09     8.70     0  02:15        1.06
  YS02001757           JUNCTION     0.28     1.86     8.12     0  02:15        1.40
  YS02001759           JUNCTION     0.23     2.08     8.44     0  02:14        1.33
  YS02001762           JUNCTION     0.22     2.13     8.53     0  02:14        1.30
  YS02001765           JUNCTION     0.20     2.10     8.55     0  02:14        1.29
  YS02001767           JUNCTION     0.20     2.03     8.52     0  02:14        1.31
  YS02001770           JUNCTION     0.22     1.95     8.45     0  02:13        1.64
  YS02001774           JUNCTION     0.27     2.05     8.47     0  02:13        1.88
  YS02001779           JUNCTION     0.12     1.68     8.37     0  02:13        1.68
  YS02001783           JUNCTION     0.24     1.27     7.41     0  02:13        1.24
  YS02001784           JUNCTION     0.25     1.15     7.22     0  02:13        1.13
  YS02001786           JUNCTION     0.21     0.90     6.93     0  02:13        0.90
  YS02001788           JUNCTION     0.15     0.62     6.59     0  02:15        0.61
  YS02001790           JUNCTION     0.18     0.71     6.36     0  02:15        0.69
  YS02001791           JUNCTION     0.12     0.43     5.90     0  02:15        0.42
  YS02001793           JUNCTION     0.06     0.28     5.11     0  02:20        0.26
  YS02001882           JUNCTION     0.29     1.69     8.40     0  02:13        1.57
  YS02001884           JUNCTION     0.37     1.77     8.38     0  02:13        1.67
  YS02001887           JUNCTION     0.45     1.82     8.36     0  02:13        1.75
  YS02001890           JUNCTION     0.48     1.81     8.32     0  02:13        1.77
  YS02001895           JUNCTION     0.27     1.58     8.33     0  02:13        1.52
  YS02001898           JUNCTION     0.27     1.59     8.33     0  02:13        1.53
  YS02001901           JUNCTION     0.37     1.70     8.31     0  02:13        1.65
  YS02001904           JUNCTION     0.36     1.65     8.28     0  02:13        1.62
  YS02001907           JUNCTION     0.65     1.96     8.25     0  02:13        1.96
  YS02001910           JUNCTION     0.46     2.00     8.51     0  02:14        1.80
  YS02001915           JUNCTION     0.29     1.95     8.66     0  02:14        1.66
  YS02001918           JUNCTION     0.15     1.81     8.88     0  02:14        1.33
  YS02001920           JUNCTION     0.23     2.14     9.15     0  02:14        1.42
  YS02001923           JUNCTION     0.11     2.03     9.29     0  02:14        1.18
  YS02001926           JUNCTION     0.15     1.90     9.35     0  02:14        1.00
  YS02001929           JUNCTION     0.08     1.78     9.47     0  02:14        0.74
  YS02006553           JUNCTION     0.65     1.97     8.26     0  02:13        1.95
  YS02006556           JUNCTION     0.63     1.94     8.25     0  02:13        1.91
  YS02006558           JUNCTION     0.67     1.98     8.25     0  02:13        1.95
  YS02006561           JUNCTION     0.14     0.94     7.60     0  02:13        0.90
  YS02163301           JUNCTION     0.45     1.91     8.43     0  02:15        1.91
  YS02163601           JUNCTION     0.53     1.99     8.38     0  02:15        1.99
  YS02164001           JUNCTION     0.46     1.89     8.35     0  02:15        1.87
  CC-1                 OUTFALL      0.00     0.00     0.00     0  00:00        0.00
  CC-2                 OUTFALL      0.00     0.00     0.00     0  00:00        0.00
  JK-1                 OUTFALL      0.00     0.00     0.00     0  00:00        0.00
  JK-2                 OUTFALL      0.00     0.00     0.00     0  00:00        0.00
  WSC                  OUTFALL      0.14     0.30     0.97     0  02:40        0.30
  CC-storage           STORAGE      0.66     1.30     6.80     0  02:32        1.30
  JK-storage           STORAGE      1.52     4.22     5.02     0  02:20        4.16
  
  
  *******************
  Node Inflow Summary
  *******************
  
  -------------------------------------------------------------------------------------------------
                                  Maximum  Maximum                  Lateral       Total        Flow
                                  Lateral    Total  Time of Max      Inflow      Inflow     Balance
                                   Inflow   Inflow   Occurrence      Volume      Volume       Error
  Node                 Type           LPS      LPS  days hr:min    10^6 ltr    10^6 ltr     Percent
  -------------------------------------------------------------------------------------------------
  WS02003060           JUNCTION     16.53   548.96     0  02:38       0.476        3.17       0.075
  WS02003066           JUNCTION      0.00   532.14     0  02:38           0         2.7       0.052
  WS02003067           JUNCTION      0.00   532.03     0  02:38           0         2.7       0.155
  WS02003069           JUNCTION      0.32   549.37     0  02:38     0.00922        3.18       0.122
  WS02003072           JUNCTION      0.00   549.01     0  02:39           0        3.18       0.217
  WS02003073           JUNCTION      1.82   550.52     0  02:39      0.0524        3.22       0.172
  WS02004401           JUNCTION      0.00  1677.78     0  00:00           0        2.81       0.411
  WS02004402           JUNCTION      0.00  1171.33     0  00:01           0         2.8       0.404
  WS02004403           JUNCTION      0.00   884.75     0  00:01           0        2.79       0.394
  WS02004404           JUNCTION      0.16   832.59     0  00:01     0.00467        2.78       0.330
  WS02004405           JUNCTION      0.04   776.49     0  00:01      0.0011        2.77       0.451
  WS02004406           JUNCTION      0.00   711.76     0  00:02           0        2.76       0.795
  WS02004407           JUNCTION      0.00   535.88     0  02:35           0        2.74       0.042
  WS02004409           JUNCTION      0.00   535.62     0  02:35           0        2.74       0.100
  WS02004410           JUNCTION      0.00   534.14     0  02:36           0        2.73       0.165
  WS02004411           JUNCTION      0.00   533.10     0  02:36           0        2.73       0.212
  WS02004412           JUNCTION      0.00   532.62     0  02:37           0        2.72       0.274
  WS02004413           JUNCTION      0.00   532.10     0  02:37           0        2.72       0.498
  WS02006109           JUNCTION      1.23  1308.01     0  00:00      0.0354        2.74       0.271
  WS02006110           JUNCTION      0.00   558.43     0  02:56           0        2.71      -1.317
  WS02006111           JUNCTION      0.00  1176.04     0  00:00           0        2.74      -1.393
  WS02006112           JUNCTION      0.00  2307.30     0  00:00           0        2.78      -0.013
  WS02006113           JUNCTION      0.00   565.93     0  02:56           0         2.7      -1.808
  WS02006115           JUNCTION      0.00   899.27     0  00:00           0        2.76      -1.159
  WS02006116           JUNCTION      0.00  1098.16     0  00:01           0        2.79      -0.824
  WS02006228           JUNCTION      0.00   552.87     0  02:56           0        2.69       0.138
  WS02006229           JUNCTION      0.00   550.53     0  02:56           0        2.67       0.340
  WS02006230           JUNCTION     10.28   580.37     0  02:55       0.296        2.66       0.042
  WS02006231           JUNCTION      0.00   570.27     0  02:55           0        2.35      -0.033
  WS02006232           JUNCTION      0.00   569.20     0  02:55           0        2.36       0.404
  WS02006234           JUNCTION      0.00   565.14     0  02:55           0        2.34      -0.512
  WS02006235           JUNCTION      0.00   558.36     0  02:55           0        2.48       0.522
  WS02006238           JUNCTION      0.00   419.59     0  02:35           0         1.8      -0.062
  WS02006239           JUNCTION      0.00   420.00     0  02:35           0        1.73      -0.039
  WS02006240           JUNCTION      0.00   418.25     0  03:06           0        1.67      -0.007
  WS02006242           JUNCTION      0.00   419.55     0  03:06           0        1.64       0.022
  WS02006243           JUNCTION      0.00   422.09     0  03:06           0        1.61      -0.382
  WS02006245           JUNCTION      0.00   421.66     0  03:06           0        1.62       0.752
  WS02006247           JUNCTION      0.00   422.94     0  03:06           0        1.62       0.006
  WS02006248           JUNCTION      0.00   424.35     0  03:06           0        1.62      -0.103
  WS02006249           JUNCTION      0.00   444.61     0  01:35           0        1.72       1.136
  WS02006251           JUNCTION      0.08   408.41     0  02:22     0.00222        1.71      -0.098
  WS02006252           JUNCTION      0.00   400.00     0  01:35           0        1.71      -0.345
  WS02006256           JUNCTION      0.00   300.00     0  00:05           0       0.971      -1.814
  WSF200               JUNCTION      0.00   532.18     0  02:38           0         2.7       0.018
  YS02001580           JUNCTION      0.00   114.42     0  02:10           0     0.00402      -4.771
  YS02001583           JUNCTION      0.00   178.45     0  02:10           0      0.0148      -5.522
  YS02001586           JUNCTION    379.01   379.02     0  02:15       0.884       0.896       0.142
  YS02001590           JUNCTION      0.00   317.82     0  02:20           0        0.86      -0.045
  YS02001593           JUNCTION      0.00   317.89     0  02:20           0       0.861       0.012
  YS02001596           JUNCTION      0.00   317.81     0  02:20           0       0.861      -0.004
  YS02001600           JUNCTION      0.00   317.87     0  02:20           0       0.861       0.011
  YS02001601           JUNCTION    665.99   983.53     0  02:14        1.21        2.08       0.038
  YS02001602           JUNCTION      0.00   519.52     0  02:09           0        1.67       0.020
  YS02001605           JUNCTION      0.00   519.48     0  02:09           0        1.63       0.024
  YS02001607           JUNCTION      0.00   519.05     0  02:09           0        1.63       0.111
  YS02001610           JUNCTION      0.00   523.21     0  02:09           0        1.63       0.130
  YS02001613           JUNCTION      0.00   523.85     0  02:09           0        1.57       0.105
  YS02001616           JUNCTION      0.00   518.67     0  02:09           0        1.57       0.029
  YS02001619           JUNCTION    653.86   938.57     0  02:12        1.36        2.93      -0.000
  YS02001622           JUNCTION      0.00   937.69     0  02:12           0        2.92      -0.003
  YS02001625           JUNCTION      0.00   937.67     0  02:12           0        2.92       0.298
  YS02001629           JUNCTION      0.00   937.43     0  02:12           0        2.86       0.003
  YS02001633           JUNCTION    513.44  1408.01     0  02:12       0.912        3.77       0.088
  YS02001641           JUNCTION      0.00  1408.84     0  02:12           0        3.77       0.072
  YS02001644           JUNCTION    439.86  1829.03     0  02:12       0.746        4.51       0.071
  YS02001647           JUNCTION      0.00  1828.71     0  02:12           0         4.5       0.009
  YS02001649           JUNCTION      0.00  2112.58     0  02:12           0        5.21       0.002
  YS02001652           JUNCTION      0.00   467.61     0  02:17           0       0.705      -0.131
  YS02001655           JUNCTION      0.15   515.41     0  02:14     0.00443       0.706       0.077
  YS02001658           JUNCTION      0.00   484.44     0  02:16           0       0.701      -0.000
  YS02001661           JUNCTION      0.00   441.10     0  02:14           0       0.702       0.039
  YS02001664           JUNCTION    441.20   441.20     0  02:14       0.702       0.702      -0.007
  YS02001745           JUNCTION    271.41   271.41     0  02:13       0.409       0.409       0.253
  YS02001748           JUNCTION      0.04   272.03     0  02:13      0.0013        0.41      -0.319
  YS02001751           JUNCTION      0.01   391.62     0  02:14    0.000317       0.414       0.196
  YS02001754           JUNCTION      0.26   366.46     0  02:15     0.00749       0.421      -0.272
  YS02001757           JUNCTION      0.00  2993.92     0  02:16           0        7.13       0.072
  YS02001759           JUNCTION    394.56   967.45     0  02:14       0.596         1.5      -0.005
  YS02001762           JUNCTION      0.00   583.15     0  02:14           0       0.899       0.015
  YS02001765           JUNCTION      0.00   581.72     0  02:14           0       0.899       0.005
  YS02001767           JUNCTION      0.54   581.48     0  02:14      0.0154       0.899      -0.000
  YS02001770           JUNCTION    541.56   579.06     0  02:14       0.885       0.926      -0.021
  YS02001774           JUNCTION      0.00   271.11     0  02:13           0      0.0614       1.864
  YS02001779           JUNCTION      0.01   273.82     0  02:13    0.000144       0.019      -1.413
  YS02001783           JUNCTION      0.00  1144.42     0  02:15           0        2.62       0.005
  YS02001784           JUNCTION      1.06  1145.84     0  02:15      0.0305        2.65       0.018
  YS02001786           JUNCTION      0.06  1145.62     0  02:15     0.00162        2.65       0.023
  YS02001788           JUNCTION      0.07  1146.71     0  02:14     0.00204        2.65       0.011
  YS02001790           JUNCTION      0.15  1158.38     0  02:15     0.00446        2.66       0.034
  YS02001791           JUNCTION      0.00  1262.84     0  02:15           0        2.66      -0.018
  YS02001793           JUNCTION      0.00  1205.59     0  02:15           0        2.66       0.008
  YS02001882           JUNCTION      0.00    53.77     0  02:11           0      0.0123       4.100
  YS02001884           JUNCTION      0.00    75.90     0  02:11           0      0.0478       4.818
  YS02001887           JUNCTION    424.07   429.93     0  02:13       0.626        0.66       0.644
  YS02001890           JUNCTION      0.00   433.81     0  02:13           0       0.619       0.791
  YS02001895           JUNCTION      0.00   439.72     0  02:12           0       0.614       0.215
  YS02001898           JUNCTION      0.00   449.71     0  02:12           0       0.613       0.038
  YS02001901           JUNCTION      0.00   467.13     0  02:12           0       0.616       0.500
  YS02001904           JUNCTION      0.00   471.15     0  02:12           0        0.62       0.421
  YS02001907           JUNCTION      0.00  1255.18     0  02:15           0        1.89       0.938
  YS02001910           JUNCTION      0.00   880.06     0  02:15           0        1.28       0.544
  YS02001915           JUNCTION    446.83   880.01     0  02:15       0.764        1.31       0.121
  YS02001918           JUNCTION      0.00   445.22     0  02:15           0       0.574       0.005
  YS02001920           JUNCTION      2.87   445.16     0  02:15      0.0827       0.557       0.168
  YS02001923           JUNCTION      0.04   444.54     0  02:14     0.00109        0.46      -0.139
  YS02001926           JUNCTION      0.05   597.81     0  02:14      0.0015       0.442      -0.020
  YS02001929           JUNCTION    228.98   366.59     0  02:13        0.43       0.432      -0.038
  YS02006553           JUNCTION      0.00   805.75     0  02:21           0         1.8       0.648
  YS02006556           JUNCTION      0.00   807.44     0  02:21           0        1.81       0.445
  YS02006558           JUNCTION    537.54  1145.04     0  02:15       0.865        2.65       0.124
  YS02006561           JUNCTION      0.00  1144.62     0  02:15           0        2.62       0.000
  YS02163301           JUNCTION      0.00   937.38     0  02:12           0        2.86       0.050
  YS02163601           JUNCTION      0.11  1407.30     0  02:12     0.00317        3.77       0.129
  YS02164001           JUNCTION      0.00  1407.10     0  02:12           0        3.77       0.059
  CC-1                 OUTFALL       0.00   683.00     0  00:05           0        2.99       0.000
  CC-2                 OUTFALL       0.00   683.00     0  00:05           0        3.28       0.000
  JK-1                 OUTFALL       0.00  1000.00     0  02:00           0        1.23       0.000
  JK-2                 OUTFALL       0.00  1000.00     0  01:50           0       0.586       0.000
  WSC                  OUTFALL       0.00   549.91     0  02:40           0        3.22       0.000
  CC-storage           STORAGE       0.00  2994.28     0  02:16           0        9.35      -0.314
  JK-storage           STORAGE       0.00  1214.16     0  02:14           0        2.81      -0.606
  
  
  **********************
  Node Surcharge Summary
  **********************
  
  Surcharging occurs when water rises above the top of the highest conduit.
  ---------------------------------------------------------------------
                                               Max. Height   Min. Depth
                                   Hours       Above Crown    Below Rim
  Node                 Type      Surcharged         Meters       Meters
  ---------------------------------------------------------------------
  WS02006109           JUNCTION        0.83          0.248        1.572
  WS02006110           JUNCTION        0.29          0.117        1.733
  WS02006111           JUNCTION        0.01          0.087        1.783
  WS02006112           JUNCTION        0.25          1.680        0.000
  WS02006113           JUNCTION        0.01          0.600        1.330
  WS02006115           JUNCTION        0.01          0.642        1.608
  WS02006116           JUNCTION        0.01          0.000        2.290
  WS02006228           JUNCTION        0.83          0.270        1.930
  WS02006229           JUNCTION        0.83          0.299        2.151
  WS02006230           JUNCTION        0.28          0.143        1.427
  WS02006231           JUNCTION        0.32          0.286        1.244
  WS02006232           JUNCTION        0.85          0.705        0.775
  WS02006234           JUNCTION        0.48          0.860        0.380
  WS02006235           JUNCTION        0.83          1.020        0.270
  WS02006238           JUNCTION        0.84          1.054        0.376
  WS02006239           JUNCTION        0.83          0.934        0.356
  WS02006240           JUNCTION        0.83          0.870        0.520
  WS02006242           JUNCTION        0.84          0.820        0.000
  WS02006243           JUNCTION        0.83          0.629        0.141
  WS02006245           JUNCTION        0.82          0.543        0.307
  WS02006247           JUNCTION        0.82          0.500        0.260
  WS02006248           JUNCTION        0.80          0.380        0.000
  WS02006249           JUNCTION        0.80          0.390        0.000
  WS02006251           JUNCTION        0.33          0.439        0.741
  WS02006252           JUNCTION        0.91          1.100        0.000
  WS02006256           JUNCTION        5.19          2.050        0.000
  YS02001580           JUNCTION        0.26          0.450        0.000
  YS02001583           JUNCTION        0.27          0.375        0.125
  YS02001586           JUNCTION        0.38          0.510        0.000
  YS02001590           JUNCTION        0.44          0.750        0.000
  YS02001593           JUNCTION        0.44          0.722        0.118
  YS02001596           JUNCTION        0.53          0.957        0.113
  YS02001600           JUNCTION        0.65          1.190        0.000
  YS02001601           JUNCTION        1.00          1.440        0.000
  YS02001602           JUNCTION        0.88          1.270        0.000
  YS02001605           JUNCTION        0.82          1.180        0.000
  YS02001607           JUNCTION        0.39          0.650        0.030
  YS02001610           JUNCTION        0.41          0.680        0.000
  YS02001613           JUNCTION        0.38          0.668        0.032
  YS02001616           JUNCTION        0.35          0.610        0.000
  YS02001619           JUNCTION        0.34          0.610        0.000
  YS02001622           JUNCTION        0.33          0.567        0.053
  YS02001625           JUNCTION        0.49          0.780        0.000
  YS02001629           JUNCTION        0.28          0.470        0.000
  YS02001633           JUNCTION        0.50          0.974        0.086
  YS02001641           JUNCTION        0.42          0.863        0.237
  YS02001644           JUNCTION        0.37          0.850        0.070
  YS02001647           JUNCTION        0.19          0.562        0.338
  YS02001649           JUNCTION        0.25          0.659        0.391
  YS02001652           JUNCTION        0.12          0.710        0.420
  YS02001655           JUNCTION        0.01          0.758        0.442
  YS02001754           JUNCTION        0.02          1.039        0.111
  YS02001757           JUNCTION        0.27          0.860        0.350
  YS02001759           JUNCTION        0.19          1.077        0.133
  YS02001762           JUNCTION        0.17          1.129        0.021
  YS02001765           JUNCTION        0.15          1.100        0.000
  YS02001767           JUNCTION        0.13          1.030        0.000
  YS02001770           JUNCTION        0.11          0.920        0.000
  YS02001774           JUNCTION        0.17          1.050        0.000
  YS02001779           JUNCTION        0.03          0.680        0.000
  YS02001783           JUNCTION        0.26          0.466        1.134
  YS02001784           JUNCTION        0.24          0.347        1.143
  YS02001786           JUNCTION        0.15          0.102        1.328
  YS02001882           JUNCTION        0.22          0.685        0.145
  YS02001884           JUNCTION        0.23          0.708        0.162
  YS02001887           JUNCTION        0.25          0.771        0.179
  YS02001890           JUNCTION        0.27          0.760        0.000
  YS02001895           JUNCTION        0.21          0.584        0.166
  YS02001898           JUNCTION        0.20          0.564        0.176
  YS02001901           JUNCTION        0.24          0.700        0.170
  YS02001904           JUNCTION        0.24          0.651        0.199
  YS02001907           JUNCTION        0.44          0.950        0.000
  YS02001910           JUNCTION        0.28          1.004        0.096
  YS02001915           JUNCTION        0.21          0.946        0.054
  YS02001918           JUNCTION        0.14          0.810        0.000
  YS02001920           JUNCTION        0.15          1.140        0.000
  YS02001923           JUNCTION        0.01          0.820        0.000
  YS02001926           JUNCTION        0.01          0.900        0.000
  YS02001929           JUNCTION        0.01          0.780        0.000
  YS02006553           JUNCTION        0.45          0.972        0.218
  YS02006556           JUNCTION        0.36          0.898        0.452
  YS02006558           JUNCTION        0.35          0.878        0.522
  YS02006561           JUNCTION        0.11          0.136        1.014
  YS02163301           JUNCTION        0.48          0.912        0.118
  YS02163601           JUNCTION        0.52          0.985        0.095
  YS02164001           JUNCTION        0.43          0.890        0.210
  
  
  *********************
  Node Flooding Summary
  *********************
  
  Flooding refers to all water that overflows a node, whether it ponds or not.
  --------------------------------------------------------------------------
                                                             Total   Maximum
                                 Maximum   Time of Max       Flood    Ponded
                        Hours       Rate    Occurrence      Volume     Depth
  Node                 Flooded       LPS   days hr:min    10^6 ltr    Meters
  --------------------------------------------------------------------------
  WS02006112              0.01   1547.89      0  00:00       0.047     0.000
  WS02006242              0.01      1.21      0  03:10       0.000     0.000
  WS02006248              0.01      2.80      0  02:56       0.000     0.000
  WS02006249              0.32    107.23      0  02:22       0.080     0.000
  WS02006252              0.01      0.91      0  02:18       0.000     0.000
  WS02006256              0.90    290.38      0  03:10       0.239     0.000
  YS02001580              0.01     91.62      0  02:10       0.000     0.000
  YS02001586              0.17    100.58      0  02:10       0.024     0.000
  YS02001590              0.01      6.09      0  02:10       0.000     0.000
  YS02001600              0.01      2.50      0  02:10       0.000     0.000
  YS02001601              0.32    585.66      0  02:14       0.402     0.000
  YS02001602              0.21     61.91      0  02:20       0.037     0.000
  YS02001605              0.01      0.04      0  02:21       0.000     0.000
  YS02001610              0.15    168.40      0  02:16       0.064     0.000
  YS02001616              0.01      0.15      0  02:13       0.000     0.000
  YS02001619              0.01      1.14      0  02:13       0.000     0.000
  YS02001625              0.12    256.99      0  02:16       0.057     0.000
  YS02001629              0.01    128.80      0  02:10       0.000     0.000
  YS02001765              0.01     88.83      0  02:14       0.000     0.000
  YS02001767              0.01      4.71      0  02:14       0.000     0.000
  YS02001770              0.01     47.69      0  02:13       0.000     0.000
  YS02001774              0.01     31.93      0  02:13       0.000     0.000
  YS02001779              0.01    192.84      0  02:13       0.001     0.000
  YS02001890              0.01     17.36      0  02:13       0.000     0.000
  YS02001907              0.10    622.44      0  02:15       0.079     0.000
  YS02001918              0.01     55.17      0  02:14       0.000     0.000
  YS02001920              0.01     19.47      0  02:14       0.000     0.000
  YS02001923              0.01    270.74      0  02:14       0.000     0.000
  YS02001926              0.01    436.61      0  02:14       0.001     0.000
  YS02001929              0.01    226.81      0  02:14       0.001     0.000
  
  
  **********************
  Storage Volume Summary
  **********************
  
  ------------------------------------------------------------------------------------------------
                         Average    Avg   Evap  Exfil     Maximum    Max    Time of Max    Maximum
                          Volume   Pcnt   Pcnt   Pcnt      Volume   Pcnt     Occurrence    Outflow
  Storage Unit           1000 m³   Full   Loss   Loss     1000 m³   Full    days hr:min        LPS
  ------------------------------------------------------------------------------------------------
  CC-storage               1.852   28.9    0.0    0.0       3.611   56.3       0  02:32    1766.00
  JK-storage               0.076   26.1    0.0    0.0       0.212   72.8       0  02:20    2300.00
  
  
  ***********************
  Outfall Loading Summary
  ***********************
  
  -----------------------------------------------------------
                         Flow       Avg       Max       Total
                         Freq      Flow      Flow      Volume
  Outfall Node           Pcnt       LPS       LPS    10^6 ltr
  -----------------------------------------------------------
  CC-1                  38.51    683.00    683.00       2.992
  CC-2                  38.69    683.00    683.00       3.285
  JK-1                   9.69   1000.00   1000.00       1.226
  JK-2                   3.09   1000.00   1000.00       0.586
  WSC                   99.99    169.93    549.91       3.215
  -----------------------------------------------------------
  System                37.99   3535.93   3875.84      11.304
  
  
  ********************
  Link Flow Summary
  ********************
  
  -----------------------------------------------------------------------------
                                 Maximum  Time of Max   Maximum    Max/    Max/
                                  |Flow|   Occurrence   |Veloc|    Full    Full
  Link                 Type          LPS  days hr:min     m/sec    Flow   Depth
  -----------------------------------------------------------------------------
  1                    CONDUIT    549.91     0  02:40      2.82    0.19    0.30
  WS02003060WS02003069 CONDUIT    549.05     0  02:38      1.64    0.22    0.34
  WS02003066WSF200     CONDUIT    532.18     0  02:38      2.85    0.09    0.22
  WS02003067WS02003066 CONDUIT    532.14     0  02:38      1.20    0.17    0.41
  WS02003069WS02003072 CONDUIT    549.01     0  02:39      1.37    0.26    0.39
  WS02003072WS02003073 CONDUIT    548.69     0  02:39      1.43    1.19    0.37
  WS02004401WS02004402 CONDUIT   1171.33     0  00:01      2.51    1.41    0.86
  WS02004402WS02004403 CONDUIT    884.75     0  00:01      2.16    1.27    0.88
  WS02004403WS02004404 CONDUIT    832.43     0  00:01      1.96    0.60    0.93
  WS02004404WS02004405 CONDUIT    776.45     0  00:01      2.26    7.61    0.96
  WS02004405WS02004406 CONDUIT    711.76     0  00:02      2.15    1.40    0.96
  WS02004406WS02004407 CONDUIT    535.88     0  02:35      1.04    0.24    0.63
  WS02004407WS02004409 CONDUIT    535.62     0  02:35      1.95    0.19    0.48
  WS02004409WS02004410 CONDUIT    534.14     0  02:36      1.31    0.69    0.67
  WS02004410WS02004411 CONDUIT    533.10     0  02:36      1.19    0.73    0.68
  WS02004411WS02004412 CONDUIT    532.62     0  02:37      1.09    0.76    0.69
  WS02004412WS02004413 CONDUIT    532.10     0  02:37      1.11    0.36    0.77
  WS02004413WS02003067 CONDUIT    532.03     0  02:38      1.10    0.23    0.59
  WS02006109WS02006110 CONDUIT   1306.78     0  00:00      3.14    2.51    1.00
  WS02006110WS02006113 CONDUIT    565.93     0  02:56      1.36    0.51    1.00
  WS02006111WS02006112 CONDUIT   2307.30     0  00:00      9.18    1.10    0.91
  WS02006112WS02006115 CONDUIT    899.27     0  00:00      1.16    0.53    1.00
  WS02006113WS02006111 CONDUIT   1176.04     0  00:00      2.46    1.41    1.00
  WS02006115WS02006116 CONDUIT   1098.16     0  00:01      1.72    1.41    1.00
  WS02006116WS02004401 CONDUIT   1677.78     0  00:00      2.92    2.31    0.84
  WS02006228WS02006109 CONDUIT    555.65     0  02:56      1.40    2.43    1.00
  WS02006229WS02006228 CONDUIT    552.87     0  02:56      1.24    1.83    1.00
  WS02006230WS02006229 CONDUIT    550.53     0  02:56      1.43   12.25    1.00
  WS02006231WS02006230 CONDUIT    570.09     0  02:55      1.55    8.65    1.00
  WS02006232WS02006231 CONDUIT    570.27     0  02:55      1.48    1.19    1.00
  WS02006234WS02006232 CONDUIT    569.20     0  02:55      1.48    1.15    1.00
  WS02006235WS02006234 CONDUIT    565.14     0  02:55      1.47    5.96    1.00
  WS02006238WS02006235 CONDUIT    420.32     0  02:35      1.52    0.94    1.00
  WS02006239WS02006238 CONDUIT    419.59     0  02:35      1.09    1.34    1.00
  WS02006240WS02006239 CONDUIT    420.00     0  02:35      1.09    1.32    1.00
  WS02006242WS02006240 CONDUIT    418.25     0  03:06      1.09    1.66    1.00
  WS02006243WS02006242 CONDUIT    419.55     0  03:06      1.25    0.90    1.00
  WS02006245WS02006243 CONDUIT    422.09     0  03:06      1.31    1.25    1.00
  WS02006247WS02006245 CONDUIT    421.66     0  03:06      1.35    3.34    1.00
  WS02006248WS02006247 CONDUIT    422.94     0  03:06      1.44    0.92    1.00
  WS02006249WS02006248 CONDUIT    424.35     0  03:06      1.37    2.32    1.00
  WS02006251WS02006249 CONDUIT    444.61     0  01:35      1.90    1.28    1.00
  WS02006252WS02006251 CONDUIT    408.33     0  02:22     17.74    1.50    1.00
  WS02006256WS02006235 CONDUIT    289.26     0  00:05      4.25    3.06    1.00
  WSF200WS02003060     CONDUIT    532.44     0  02:38      2.06    0.12    0.28
  YS02001580YS02001583 CONDUIT    114.42     0  02:10      0.70    0.44    1.00
  YS02001583YS02001586 CONDUIT    169.15     0  02:10      0.70    0.26    1.00
  YS02001586YS02001590 CONDUIT    317.82     0  02:20      1.27    0.56    1.00
  YS02001590YS02001593 CONDUIT    317.89     0  02:20      1.12    2.00    1.00
  YS02001593YS02001596 CONDUIT    317.81     0  02:20      1.73    0.50    1.00
  YS02001596YS02001600 CONDUIT    317.87     0  02:20      1.21    0.62    1.00
  YS02001600YS02001601 CONDUIT    317.89     0  02:20      1.12    0.55    1.00
  YS02001601YS02001602 CONDUIT    519.52     0  02:09      1.84    1.88    1.00
  YS02001602YS02001605 CONDUIT    519.48     0  02:09      1.84   10.99    1.00
  YS02001605YS02001607 CONDUIT    519.05     0  02:09      1.84    2.85    1.00
  YS02001607YS02001610 CONDUIT    523.21     0  02:09      0.67    0.50    1.00
  YS02001610YS02001613 CONDUIT    523.85     0  02:09      0.67    0.60    1.00
  YS02001613YS02001616 CONDUIT    518.67     0  02:09      0.67    0.44    1.00
  YS02001616YS02001619 CONDUIT    501.84     0  02:30      0.68    0.87    1.00
  YS02001619YS02001622 CONDUIT    937.69     0  02:12      1.19    1.38    1.00
  YS02001622YS02001625 CONDUIT    937.67     0  02:12      1.19    0.50    1.00
  YS02001625YS02001629 CONDUIT    937.43     0  02:12      1.19    0.45    1.00
  YS02001629YS02163301 CONDUIT    937.38     0  02:12      1.19    1.15    1.00
  YS02001633YS02163601 CONDUIT   1407.19     0  02:12      1.79    1.48    1.00
  YS02001641YS02001644 CONDUIT   1407.89     0  02:12      1.79    4.55    1.00
  YS02001644YS02001647 CONDUIT   1828.71     0  02:12      2.33    1.07    1.00
  YS02001647YS02001649 CONDUIT   1827.51     0  02:12      2.39    0.96    1.00
  YS02001649YS02001757 CONDUIT   2120.33     0  02:12      2.70    1.29    1.00
  YS02001652YS02001649 CONDUIT    469.20     0  02:17      0.75    0.23    1.00
  YS02001655YS02001652 CONDUIT    467.61     0  02:17      1.30    0.23    1.00
  YS02001658YS02001655 CONDUIT    515.26     0  02:14      1.94    0.22    0.88
  YS02001661YS02001658 CONDUIT    484.44     0  02:16      2.35    0.19    0.53
  YS02001664YS02001661 CONDUIT    441.10     0  02:14      2.20    0.14    0.33
  YS02001745YS02001748 CONDUIT    271.98     0  02:13      2.15    0.10    0.39
  YS02001748YS02001751 CONDUIT    327.48     0  02:16      1.75    0.17    0.73
  YS02001751YS02001754 CONDUIT    366.20     0  02:15      1.42    0.18    0.92
  YS02001754YS02001757 CONDUIT    318.50     0  02:16      0.46    0.13    1.00
  YS02001757CaochengTiaoxuchi CONDUIT   2994.28     0  02:16      3.88    1.30    1.00
  YS02001759YS02001757 CONDUIT    968.10     0  02:14      1.23    0.69    1.00
  YS02001762YS02001759 CONDUIT    584.48     0  02:14      0.74    0.67    1.00
  YS02001765YS02001762 CONDUIT    583.15     0  02:14      0.74    0.55    1.00
  YS02001767YS02001765 CONDUIT    581.72     0  02:14      0.77    0.73    1.00
  YS02001770YS02001767 CONDUIT    580.95     0  02:14      0.75    2.30    1.00
  YS02001774YS02001770 CONDUIT    271.11     0  02:13      0.35    0.17    1.00
  YS02001779YS02001774 CONDUIT    273.81     0  02:13      0.36    0.14    1.00
  YS02001783YS02001784 CONDUIT   1144.78     0  02:15      2.28    1.58    1.00
  YS02001784YS02001785 CONDUIT   1145.56     0  02:15      2.28    2.67    1.00
  YS02001786YS02001788 CONDUIT   1146.64     0  02:14      2.45    2.21    0.89
  YS02001788YS02001790 CONDUIT   1158.23     0  02:15      2.69    0.85    0.83
  YS02001790YS02001791 CONDUIT   1262.84     0  02:15      3.40    1.37    0.69
  YS02001791YS02001793 CONDUIT   1205.59     0  02:15      6.67    0.52    0.43
  YS02001793JiankangQianchi CONDUIT   1214.16     0  02:14      2.44    0.10    0.64
  YS02001882YS02001884 CONDUIT     53.77     0  02:11      0.10    0.06    1.00
  YS02001884YS02001887 CONDUIT     75.90     0  02:11      0.10    0.10    1.00
  YS02001887YS02001890 CONDUIT    433.81     0  02:13      0.55    0.74    1.00
  YS02001890YS02001895 CONDUIT    439.72     0  02:12      0.56    0.20    1.00
  YS02001895YS02001898 CONDUIT    449.71     0  02:12      0.57    0.78    1.00
  YS02001898YS02001901 CONDUIT    467.13     0  02:12      0.59    0.30    1.00
  YS02001901YS02001904 CONDUIT    471.15     0  02:12      0.60    0.73    1.00
  YS02001904YS02001907 CONDUIT    478.36     0  02:12      0.61    0.17    1.00
  YS02001907YS02006553 CONDUIT    805.75     0  02:21      0.90    0.95    1.00
  YS02001910YS02001907 CONDUIT    880.02     0  02:15      1.12    0.50    1.00
  YS02001915YS02001910 CONDUIT    880.06     0  02:15      1.12    0.44    1.00
  YS02001918YS02001915 CONDUIT    445.24     0  02:15      0.57    0.25    1.00
  YS02001920YS02001918 CONDUIT    445.22     0  02:15      0.65    0.43    1.00
  YS02001923YS02001920 CONDUIT    442.29     0  02:15      0.73    0.20    1.00
  YS02001926YS02001923 CONDUIT    379.09     0  02:15      0.98    0.54    1.00
  YS02001929YS02001926 CONDUIT    364.35     0  02:14      1.15    0.17    1.00
  YS02006553YS02006556 CONDUIT    807.44     0  02:21      1.03    0.69    1.00
  YS02006556YS02006558 CONDUIT    807.48     0  02:21      1.03    0.64    1.00
  YS02006558YS02006561 CONDUIT   1144.62     0  02:15      4.05    2.53    1.00
  YS02006561YS02001783 CONDUIT   1144.42     0  02:15      2.29    0.59    1.00
  YS02163301YS02001633 CONDUIT    938.11     0  02:11      1.19    0.88    1.00
  YS02163601YS02164001 CONDUIT   1407.10     0  02:12      1.79    1.25    1.00
  YS02164001YS02001641 CONDUIT   1408.84     0  02:12      1.79    1.92    1.00
  CC-R1                PUMP       683.00     0  00:05              1.00
  CC-R2                PUMP       683.00     0  00:05              1.00
  CC-S1                PUMP       200.00     0  00:05              1.00
  CC-S2                PUMP       200.00     0  01:15              1.00
  JK-R1                PUMP      1000.00     0  02:00              1.00
  JK-R2                PUMP      1000.00     0  01:50              1.00
  JK-S                 PUMP       300.00     0  00:05              1.00
  
  
  ***************************
  Flow Classification Summary
  ***************************
  
  -------------------------------------------------------------------------------------
                      Adjusted    ---------- Fraction of Time in Flow Class ---------- 
                       /Actual         Up    Down  Sub   Sup   Up    Down  Norm  Inlet 
  Conduit               Length    Dry  Dry   Dry   Crit  Crit  Crit  Crit  Ltd   Ctrl  
  -------------------------------------------------------------------------------------
  1                       1.00   0.00  0.00  0.00  0.00  1.00  0.00  0.00  0.40  0.00
  WS02003060WS02003069    1.00   0.00  0.00  0.00  0.96  0.04  0.00  0.00  0.84  0.00
  WS02003066WSF200        1.00   0.03  0.00  0.00  0.00  0.97  0.00  0.00  0.91  0.00
  WS02003067WS02003066    1.00   0.02  0.01  0.00  0.97  0.00  0.00  0.00  0.00  0.00
  WS02003069WS02003072    1.00   0.00  0.00  0.00  0.99  0.01  0.00  0.00  0.87  0.00
  WS02003072WS02003073    1.00   0.00  0.00  0.00  0.00  0.00  0.00  1.00  0.00  0.00
  WS02004401WS02004402    1.00   0.00  0.00  0.00  1.00  0.00  0.00  0.00  0.00  0.00
  WS02004402WS02004403    1.00   0.00  0.00  0.00  1.00  0.00  0.00  0.00  0.00  0.00
  WS02004403WS02004404    1.00   0.00  0.00  0.00  1.00  0.00  0.00  0.00  0.00  0.00
  WS02004404WS02004405    1.00   0.00  0.00  0.00  1.00  0.00  0.00  0.00  0.01  0.00
  WS02004405WS02004406    1.00   0.00  0.00  0.00  1.00  0.00  0.00  0.00  0.00  0.00
  WS02004406WS02004407    1.00   0.00  0.00  0.00  1.00  0.00  0.00  0.00  0.00  0.00
  WS02004407WS02004409    1.00   0.00  0.00  0.00  0.99  0.00  0.00  0.00  0.99  0.00
  WS02004409WS02004410    1.00   0.00  0.00  0.00  0.99  0.00  0.00  0.00  0.00  0.00
  WS02004410WS02004411    1.00   0.01  0.00  0.00  0.99  0.00  0.00  0.00  0.00  0.00
  WS02004411WS02004412    1.00   0.01  0.00  0.00  0.99  0.00  0.00  0.00  0.00  0.00
  WS02004412WS02004413    1.00   0.01  0.00  0.00  0.99  0.00  0.00  0.00  0.00  0.00
  WS02004413WS02003067    1.00   0.01  0.01  0.00  0.00  0.00  0.98  0.00  0.00  0.00
  WS02006109WS02006110    1.00   0.00  0.00  0.00  1.00  0.00  0.00  0.00  0.00  0.00
  WS02006110WS02006113    1.00   0.00  0.00  0.00  1.00  0.00  0.00  0.00  0.00  0.00
  WS02006111WS02006112    1.00   0.00  0.00  0.00  1.00  0.00  0.00  0.00  1.00  0.00
  WS02006112WS02006115    1.00   0.00  0.00  0.00  1.00  0.00  0.00  0.00  0.00  0.00
  WS02006113WS02006111    1.00   0.00  0.00  0.00  0.01  0.99  0.00  0.00  0.10  0.00
  WS02006115WS02006116    1.00   0.00  0.00  0.00  1.00  0.00  0.00  0.00  0.00  0.00
  WS02006116WS02004401    1.00   0.00  0.00  0.00  1.00  0.00  0.00  0.00  0.00  0.00
  WS02006228WS02006109    1.00   0.00  0.00  0.00  1.00  0.00  0.00  0.00  0.00  0.00
  WS02006229WS02006228    1.00   0.00  0.00  0.00  1.00  0.00  0.00  0.00  0.00  0.00
  WS02006230WS02006229    1.00   0.00  0.00  0.00  1.00  0.00  0.00  0.00  0.03  0.00
  WS02006231WS02006230    1.00   0.00  0.00  0.00  0.12  0.00  0.88  0.00  0.00  0.00
  WS02006232WS02006231    1.00   0.00  0.00  0.00  0.98  0.00  0.02  0.00  0.00  0.00
  WS02006234WS02006232    1.00   0.00  0.00  0.00  0.99  0.00  0.00  0.00  0.10  0.00
  WS02006235WS02006234    1.00   0.01  0.00  0.00  0.81  0.00  0.18  0.00  0.00  0.00
  WS02006238WS02006235    1.00   0.01  0.00  0.00  0.99  0.00  0.00  0.00  0.00  0.00
  WS02006239WS02006238    1.00   0.01  0.00  0.00  0.99  0.00  0.00  0.00  0.34  0.00
  WS02006240WS02006239    1.00   0.01  0.00  0.00  0.49  0.00  0.00  0.50  0.03  0.00
  WS02006242WS02006240    1.00   0.01  0.00  0.00  0.98  0.00  0.00  0.00  0.01  0.00
  WS02006243WS02006242    1.00   0.01  0.00  0.00  0.98  0.00  0.00  0.01  0.74  0.00
  WS02006245WS02006243    1.00   0.01  0.00  0.00  0.63  0.00  0.00  0.36  0.01  0.00
  WS02006247WS02006245    1.00   0.01  0.00  0.00  0.94  0.00  0.00  0.04  0.00  0.00
  WS02006248WS02006247    1.00   0.01  0.00  0.00  0.97  0.00  0.00  0.02  0.48  0.00
  WS02006249WS02006248    1.00   0.00  0.01  0.00  0.28  0.00  0.71  0.00  0.00  0.00
  WS02006251WS02006249    1.00   0.00  0.00  0.00  0.99  0.01  0.00  0.00  0.74  0.00
  WS02006252WS02006251    1.00   0.01  0.77  0.00  0.04  0.00  0.18  0.00  0.00  0.00
  WS02006256WS02006235    1.00   0.01  0.00  0.00  0.97  0.02  0.00  0.00  0.00  0.00
  WSF200WS02003060        1.00   0.00  0.03  0.00  0.59  0.38  0.00  0.00  0.81  0.00
  YS02001580YS02001583    1.00   0.27  0.59  0.00  0.15  0.00  0.00  0.00  0.68  0.00
  YS02001583YS02001586    1.00   0.50  0.30  0.00  0.20  0.00  0.00  0.00  0.68  0.00
  YS02001586YS02001590    1.00   0.13  0.00  0.00  0.37  0.04  0.00  0.46  0.35  0.00
  YS02001590YS02001593    1.00   0.13  0.01  0.00  0.07  0.00  0.80  0.00  0.00  0.00
  YS02001593YS02001596    1.00   0.14  0.00  0.00  0.08  0.01  0.00  0.77  0.02  0.00
  YS02001596YS02001600    1.00   0.14  0.00  0.00  0.15  0.01  0.00  0.70  0.06  0.00
  YS02001600YS02001601    1.00   0.13  0.01  0.00  0.86  0.00  0.00  0.00  0.65  0.00
  YS02001601YS02001602    1.00   0.13  0.01  0.00  0.86  0.00  0.00  0.00  0.00  0.00
  YS02001602YS02001605    1.00   0.14  0.00  0.00  0.86  0.00  0.00  0.00  0.00  0.00
  YS02001605YS02001607    1.00   0.14  0.00  0.00  0.86  0.00  0.00  0.00  0.00  0.00
  YS02001607YS02001610    1.00   0.13  0.01  0.00  0.86  0.00  0.00  0.00  0.02  0.00
  YS02001610YS02001613    1.00   0.13  0.00  0.00  0.87  0.00  0.00  0.00  0.01  0.00
  YS02001613YS02001616    1.00   0.13  0.00  0.00  0.87  0.00  0.00  0.00  0.01  0.00
  YS02001616YS02001619    1.00   0.13  0.00  0.00  0.87  0.00  0.00  0.00  0.00  0.00
  YS02001619YS02001622    1.00   0.13  0.00  0.00  0.87  0.00  0.00  0.00  0.36  0.00
  YS02001622YS02001625    1.00   0.13  0.00  0.00  0.87  0.00  0.00  0.00  0.06  0.00
  YS02001625YS02001629    1.00   0.13  0.06  0.00  0.10  0.00  0.71  0.00  0.00  0.00
  YS02001629YS02163301    1.00   0.16  0.01  0.00  0.83  0.00  0.00  0.00  0.00  0.00
  YS02001633YS02163601    1.00   0.00  0.01  0.00  0.99  0.00  0.00  0.00  0.15  0.00
  YS02001641YS02001644    1.00   0.00  0.01  0.00  0.99  0.00  0.00  0.00  0.00  0.00
  YS02001644YS02001647    1.00   0.00  0.19  0.00  0.81  0.00  0.00  0.00  0.00  0.00
  YS02001647YS02001649    1.00   0.00  0.18  0.00  0.51  0.31  0.00  0.00  0.60  0.00
  YS02001649YS02001757    1.00   0.00  0.00  0.00  0.67  0.33  0.00  0.00  0.59  0.00
  YS02001652YS02001649    1.00   0.00  0.00  0.00  0.96  0.04  0.00  0.00  0.80  0.00
  YS02001655YS02001652    1.00   0.00  0.00  0.00  0.12  0.02  0.00  0.86  0.06  0.00
  YS02001658YS02001655    1.00   0.00  0.14  0.00  0.61  0.24  0.00  0.00  0.77  0.00
  YS02001661YS02001658    1.00   0.14  0.00  0.00  0.47  0.38  0.00  0.00  0.77  0.00
  YS02001664YS02001661    1.00   0.13  0.00  0.00  0.77  0.11  0.00  0.00  0.87  0.00
  YS02001745YS02001748    1.00   0.00  0.00  0.00  0.02  0.01  0.00  0.97  0.03  0.00
  YS02001748YS02001751    1.00   0.00  0.00  0.00  0.79  0.21  0.00  0.00  0.81  0.00
  YS02001751YS02001754    1.00   0.00  0.00  0.00  0.08  0.01  0.00  0.92  0.02  0.00
  YS02001754YS02001757    1.00   0.00  0.00  0.00  1.00  0.00  0.00  0.00  0.91  0.00
  YS02001757CaochengTiaoxuchi    1.00   0.00  0.00  0.00  0.96  0.04  0.00  0.00  0.88  0.00
  YS02001759YS02001757    1.00   0.00  0.00  0.00  1.00  0.00  0.00  0.00  0.69  0.00
  YS02001762YS02001759    1.00   0.00  0.00  0.00  1.00  0.00  0.00  0.00  0.05  0.00
  YS02001765YS02001762    1.00   0.00  0.00  0.00  1.00  0.00  0.00  0.00  0.78  0.00
  YS02001767YS02001765    1.00   0.00  0.00  0.00  1.00  0.00  0.00  0.00  0.00  0.00
  YS02001770YS02001767    1.00   0.00  0.00  0.00  1.00  0.00  0.00  0.00  0.00  0.00
  YS02001774YS02001770    1.00   0.00  0.13  0.00  0.59  0.00  0.27  0.00  0.04  0.00
  YS02001779YS02001774    1.00   0.00  0.00  0.00  1.00  0.00  0.00  0.00  0.83  0.00
  YS02001783YS02001784    1.00   0.00  0.19  0.00  0.81  0.00  0.00  0.00  0.58  0.00
  YS02001784YS02001785    1.00   0.00  0.00  0.00  1.00  0.00  0.00  0.00  0.18  0.00
  YS02001786YS02001788    1.00   0.00  0.00  0.00  0.80  0.20  0.00  0.00  0.00  0.00
  YS02001788YS02001790    1.00   0.00  0.00  0.00  0.21  0.79  0.00  0.00  0.85  0.00
  YS02001790YS02001791    1.00   0.00  0.00  0.00  0.01  0.99  0.00  0.00  0.15  0.00
  YS02001791YS02001793    1.00   0.00  0.00  0.00  0.00  1.00  0.00  0.00  0.00  0.00
  YS02001793JiankangQianchi    1.00   0.00  0.00  0.00  1.00  0.00  0.00  0.00  0.98  0.00
  YS02001882YS02001884    1.00   0.16  0.01  0.00  0.83  0.00  0.00  0.00  0.00  0.00
  YS02001884YS02001887    1.00   0.06  0.05  0.00  0.89  0.00  0.00  0.00  0.00  0.00
  YS02001887YS02001890    1.00   0.00  0.00  0.00  0.97  0.00  0.03  0.00  0.00  0.00
  YS02001890YS02001895    1.00   0.00  0.17  0.00  0.82  0.00  0.00  0.00  0.00  0.00
  YS02001895YS02001898    1.00   0.18  0.00  0.00  0.80  0.00  0.02  0.00  0.00  0.00
  YS02001898YS02001901    1.00   0.18  0.00  0.00  0.82  0.00  0.00  0.00  0.01  0.00
  YS02001901YS02001904    1.00   0.18  0.00  0.00  0.82  0.00  0.00  0.00  0.00  0.00
  YS02001904YS02001907    1.00   0.00  0.17  0.00  0.82  0.00  0.00  0.00  0.00  0.00
  YS02001907YS02006553    1.00   0.00  0.02  0.00  0.98  0.00  0.00  0.00  0.00  0.00
  YS02001910YS02001907    1.00   0.00  0.00  0.00  0.97  0.00  0.00  0.03  0.12  0.00
  YS02001915YS02001910    1.00   0.00  0.00  0.00  0.96  0.04  0.00  0.00  0.18  0.00
  YS02001918YS02001915    1.00   0.00  0.00  0.00  0.98  0.02  0.00  0.00  0.80  0.00
  YS02001920YS02001918    1.00   0.00  0.00  0.00  1.00  0.00  0.00  0.00  0.01  0.00
  YS02001923YS02001920    1.00   0.00  0.00  0.00  1.00  0.00  0.00  0.00  0.96  0.00
  YS02001926YS02001923    1.00   0.00  0.07  0.00  0.03  0.00  0.90  0.00  0.00  0.00
  YS02001929YS02001926    1.00   0.00  0.13  0.00  0.87  0.00  0.00  0.00  0.85  0.00
  YS02006553YS02006556    1.00   0.01  0.00  0.00  0.99  0.00  0.00  0.00  0.03  0.00
  YS02006556YS02006558    1.00   0.00  0.00  0.00  1.00  0.00  0.00  0.00  0.00  0.00
  YS02006558YS02006561    1.00   0.19  0.00  0.00  0.02  0.78  0.00  0.00  0.18  0.00
  YS02006561YS02001783    1.00   0.19  0.00  0.00  0.05  0.76  0.00  0.00  0.72  0.00
  YS02163301YS02001633    1.00   0.00  0.16  0.00  0.84  0.00  0.00  0.00  0.00  0.00
  YS02163601YS02164001    1.00   0.00  0.08  0.00  0.92  0.00  0.00  0.00  0.00  0.00
  YS02164001YS02001641    1.00   0.01  0.07  0.00  0.92  0.00  0.00  0.00  0.06  0.00
  
  
  *************************
  Conduit Surcharge Summary
  *************************
  
  ----------------------------------------------------------------------------
                                                           Hours        Hours 
                         --------- Hours Full --------   Above Full   Capacity
  Conduit                Both Ends  Upstream  Dnstream   Normal Flow   Limited
  ----------------------------------------------------------------------------
  WS02003072WS02003073        0.01      0.01      0.01      0.41         0.01
  WS02004401WS02004402        0.01      0.01      0.01      0.01         0.01
  WS02004402WS02004403        0.01      0.01      0.01      0.01         0.01
  WS02004404WS02004405        0.01      0.01      0.01      1.95         0.01
  WS02004405WS02004406        0.01      0.01      0.01      0.20         0.01
  WS02006109WS02006110        0.28      0.29      0.85      0.31         0.01
  WS02006110WS02006113        0.01      0.01      0.84      0.01         0.01
  WS02006111WS02006112        0.01      0.01      1.00      0.01         0.01
  WS02006112WS02006115        0.01      0.01      0.24      0.01         0.01
  WS02006113WS02006111        0.01      0.01      0.01      0.01         0.01
  WS02006115WS02006116        0.01      0.01      0.01      0.01         0.01
  WS02006116WS02004401        0.01      0.01      0.01      0.01         0.01
  WS02006228WS02006109        0.83      0.84      0.83      1.28         0.83
  WS02006229WS02006228        0.83      0.83      0.83      1.01         0.83
  WS02006230WS02006229        0.90      0.96      0.90      2.35         0.90
  WS02006231WS02006230        0.28      0.28      0.34      1.96         0.01
  WS02006232WS02006231        0.32      0.32      0.85      0.36         0.01
  WS02006234WS02006232        0.82      0.82      0.85      0.34         0.34
  WS02006235WS02006234        0.48      0.48      0.83      1.77         0.01
  WS02006238WS02006235        0.83      0.83      0.85      0.01         0.01
  WS02006239WS02006238        0.84      0.84      0.84      0.84         0.76
  WS02006240WS02006239        0.83      0.83      0.83      0.81         0.75
  WS02006242WS02006240        0.83      0.83      0.86      0.91         0.01
  WS02006243WS02006242        0.83      0.83      0.84      0.01         0.01
  WS02006245WS02006243        0.82      0.82      0.83      0.52         0.52
  WS02006247WS02006245        0.82      0.82      0.82      1.34         0.81
  WS02006248WS02006247        0.80      0.80      0.82      0.01         0.01
  WS02006249WS02006248        0.80      0.80      0.80      1.27         0.01
  WS02006251WS02006249        0.80      0.80      0.80      0.86         0.78
  WS02006252WS02006251        0.89      0.90      0.91      0.89         0.01
  WS02006256WS02006235        1.84      1.88      5.13      0.92         0.01
  YS02001580YS02001583        0.26      0.26      0.31      0.01         0.01
  YS02001583YS02001586        0.27      0.27      0.38      0.01         0.01
  YS02001586YS02001590        0.38      0.38      0.44      0.01         0.01
  YS02001590YS02001593        0.44      0.44      0.45      0.46         0.01
  YS02001593YS02001596        0.45      0.45      0.53      0.01         0.01
  YS02001596YS02001600        0.57      0.57      0.65      0.01         0.01
  YS02001600YS02001601        0.71      0.71      1.00      0.01         0.01
  YS02001601YS02001602        0.88      0.88      1.05      0.67         0.01
  YS02001602YS02001605        0.82      0.82      0.88      1.88         0.01
  YS02001605YS02001607        0.78      0.82      0.78      0.95         0.78
  YS02001607YS02001610        0.39      0.39      0.41      0.01         0.01
  YS02001610YS02001613        0.38      0.38      0.41      0.01         0.01
  YS02001613YS02001616        0.35      0.35      0.38      0.01         0.01
  YS02001616YS02001619        0.34      0.34      0.35      0.01         0.01
  YS02001619YS02001622        0.33      0.34      0.33      0.47         0.33
  YS02001622YS02001625        0.33      0.33      0.49      0.01         0.01
  YS02001625YS02001629        0.28      0.28      0.49      0.01         0.01
  YS02001629YS02163301        0.47      0.47      0.48      0.25         0.24
  YS02001633YS02163601        0.50      0.50      0.52      0.39         0.39
  YS02001641YS02001644        0.37      0.42      0.37      1.11         0.37
  YS02001644YS02001647        0.19      0.19      0.37      0.04         0.01
  YS02001647YS02001649        0.19      0.19      0.25      0.01         0.01
  YS02001649YS02001757        0.24      0.25      0.27      0.23         0.17
  YS02001652YS02001649        0.13      0.13      0.25      0.01         0.01
  YS02001655YS02001652        0.01      0.01      0.12      0.01         0.01
  YS02001658YS02001655        0.01      0.01      0.01      0.01         0.01
  YS02001751YS02001754        0.01      0.01      0.02      0.01         0.01
  YS02001754YS02001757        0.04      0.04      0.27      0.01         0.01
  YS02001757CaochengTiaoxuchi        0.18      0.27      0.71      0.21         0.08
  YS02001759YS02001757        0.19      0.19      0.27      0.01         0.01
  YS02001762YS02001759        0.17      0.17      0.19      0.01         0.01
  YS02001765YS02001762        0.15      0.15      0.17      0.01         0.01
  YS02001767YS02001765        0.13      0.13      0.15      0.01         0.01
  YS02001770YS02001767        0.13      0.13      0.13      0.31         0.10
  YS02001774YS02001770        0.11      0.11      0.17      0.01         0.01
  YS02001779YS02001774        0.03      0.03      0.17      0.01         0.01
  YS02001783YS02001784        0.24      0.26      0.24      0.38         0.24
  YS02001784YS02001785        0.15      0.24      0.15      0.56         0.15
  YS02001786YS02001788        0.01      0.15      0.01      0.47         0.01
  YS02001790YS02001791        0.01      0.01      0.01      0.23         0.01
  YS02001793JiankangQianchi        0.01      0.01      7.46      0.01         0.01
  YS02001882YS02001884        0.22      0.22      0.23      0.01         0.01
  YS02001884YS02001887        0.24      0.24      0.25      0.01         0.01
  YS02001887YS02001890        0.27      0.27      0.28      0.01         0.01
  YS02001890YS02001895        0.21      0.21      0.29      0.01         0.01
  YS02001895YS02001898        0.20      0.20      0.21      0.01         0.01
  YS02001898YS02001901        0.21      0.21      0.24      0.01         0.01
  YS02001901YS02001904        0.24      0.24      0.24      0.01         0.01
  YS02001904YS02001907        0.24      0.24      0.45      0.01         0.01
  YS02001907YS02006553        0.56      0.56      0.62      0.01         0.01
  YS02001910YS02001907        0.28      0.28      0.44      0.01         0.01
  YS02001915YS02001910        0.21      0.21      0.28      0.01         0.01
  YS02001918YS02001915        0.14      0.14      0.21      0.01         0.01
  YS02001920YS02001918        0.14      0.14      0.15      0.01         0.01
  YS02001923YS02001920        0.08      0.08      0.15      0.01         0.01
  YS02001926YS02001923        0.01      0.01      0.01      0.01         0.01
  YS02001929YS02001926        0.01      0.01      0.01      0.01         0.01
  YS02006553YS02006556        0.36      0.36      0.45      0.01         0.01
  YS02006556YS02006558        0.40      0.40      0.46      0.01         0.01
  YS02006558YS02006561        0.17      0.35      0.17      0.52         0.17
  YS02006561YS02001783        0.11      0.11      0.26      0.01         0.01
  YS02163301YS02001633        0.48      0.48      0.51      0.01         0.01
  YS02163601YS02164001        0.43      0.43      0.52      0.20         0.01
  YS02164001YS02001641        0.42      0.43      0.42      0.56         0.41
  
  
  ***************
  Pumping Summary
  ***************
  
  ---------------------------------------------------------------------------------------------------------
                                                  Min       Avg       Max     Total     Power    % Time Off
                        Percent   Number of      Flow      Flow      Flow    Volume     Usage    Pump Curve
  Pump                 Utilized   Start-Ups       LPS       LPS       LPS  10^6 ltr     Kw-hr    Low   High
  ---------------------------------------------------------------------------------------------------------
  CC-R1                   15.27          15      0.00    683.00    683.00     3.003     52.82    0.0   50.1
  CC-R2                   16.80          35      0.00    683.00    683.00     3.304     56.84    0.0   67.6
  CC-S1                   16.99          10      0.00    200.00    200.00     0.979      6.12    0.0    0.0
  CC-S2                   12.71          13      0.00    200.00    200.00     0.732      4.55    0.0    0.0
  JK-R1                    4.27          17      0.00   1000.00   1000.00     1.230     12.00    0.0    0.0
  JK-R2                    2.05          14      0.00   1000.00   1000.00     0.590      4.43    0.0    0.0
  JK-S                    11.22          22      0.00    300.00    300.00     0.970     17.13    0.0    0.0
  

  Analysis begun on:  Fri Aug  4 08:52:09 2023
  Analysis ended on:  Fri Aug  4 08:52:14 2023
  Total elapsed time: 00:00:05