
  OWA STORM WATER MANAGEMENT MODEL - VERSION v5.1.14 (OWA 2022-07-31)
  --------------------------------------------------------------

  WARNING 04: minimum elevation drop used for Conduit WS02004404WS02004405
  WARNING 03: negative offset ignored for Link YS02001904YS02001907
  
  *********************************************************
  NOTE: The summary statistics displayed in this report are
  based on results found at every computational time step,  
  not just on results from each reporting time step.
  *********************************************************
  
  ****************
  Analysis Options
  ****************
  Flow Units ............... LPS
  Process Models:
    Rainfall/Runoff ........ YES
    RDII ................... NO
    Snowmelt ............... NO
    Groundwater ............ NO
    Flow Routing ........... YES
    Ponding Allowed ........ NO
    Water Quality .......... NO
  Infiltration Method ...... HORTON
  Flow Routing Method ...... DYNWAVE
  Surcharge Method ......... EXTRAN
  Starting Date ............ 08/28/2015 08:00:00
  Ending Date .............. 08/28/2015 16:00:00
  Antecedent Dry Days ...... 8.0
  Report Time Step ......... 00:01:00
  Wet Time Step ............ 00:01:00
  Dry Time Step ............ 00:01:00
  Routing Time Step ........ 30.00 sec
  Variable Time Step ....... YES
  Maximum Trials ........... 8
  Number of Threads ........ 1
  Head Tolerance ........... 0.001500 m
  
  
  **************************        Volume         Depth
  Runoff Quantity Continuity     hectare-m            mm
  **************************     ---------       -------
  Initial LID Storage ......         0.049         1.488
  Total Precipitation ......         6.689       201.670
  Evaporation Loss .........         0.000         0.000
  Infiltration Loss ........         0.084         2.527
  Surface Runoff ...........         5.685       171.395
  Final Storage ............         0.971        29.277
  Continuity Error (%) .....        -0.020
  
  
  **************************        Volume        Volume
  Flow Routing Continuity        hectare-m      10^6 ltr
  **************************     ---------     ---------
  Dry Weather Inflow .......         0.000         0.000
  Wet Weather Inflow .......         5.685        56.850
  Groundwater Inflow .......         0.000         0.000
  RDII Inflow ..............         0.000         0.000
  External Inflow ..........         0.083         0.834
  External Outflow .........         2.236        22.362
  Flooding Loss ............         3.631        36.314
  Evaporation Loss .........         0.000         0.000
  Exfiltration Loss ........         0.000         0.000
  Initial Stored Volume ....         0.243         2.431
  Final Stored Volume ......         0.179         1.786
  Continuity Error (%) .....        -0.578
  
  
  *************************
  Highest Continuity Errors
  *************************
  Node YS02001884 (4.02%)
  Node YS02001583 (-2.27%)
  Node WS02006256 (-1.36%)
  Node WS02006110 (-1.06%)
  
  
  ***************************
  Time-Step Critical Elements
  ***************************
  Link WS02006252WS02006251 (30.87%)
  Link WS02004404WS02004405 (20.93%)
  Link WS02006238WS02006235 (12.76%)
  Link WS02006235WS02006234 (8.46%)
  Link YS02001791YS02001793 (8.41%)
  
  
  ********************************
  Highest Flow Instability Indexes
  ********************************
  Link WS02006113WS02006111 (42)
  Link WS02006111WS02006112 (25)
  Link WS02006238WS02006235 (22)
  Link WS02004404WS02004405 (22)
  Link WS02006252WS02006251 (20)
  
  
  *************************
  Routing Time Step Summary
  *************************
  Minimum Time Step           :     0.02 sec
  Average Time Step           :     2.39 sec
  Maximum Time Step           :    30.00 sec
  Percent in Steady State     :    -0.00
  Average Iterations per Step :     3.58
  Percent Not Converging      :    17.25
  
  
  ***************************
  Subcatchment Runoff Summary
  ***************************
  
  ------------------------------------------------------------------------------------------------------------------------------
                            Total      Total      Total      Total     Imperv       Perv      Total       Total     Peak  Runoff
                           Precip      Runon       Evap      Infil     Runoff     Runoff     Runoff      Runoff   Runoff   Coeff
  Subcatchment                 mm         mm         mm         mm         mm         mm         mm    10^6 ltr      LPS
  ------------------------------------------------------------------------------------------------------------------------------
  sub60                    232.27       0.00       0.00       1.47     156.85      20.04     199.34        2.62  2193.82   0.858
  sub61                    232.27       0.00       0.00       2.28     156.71      30.01     204.67        3.76  3054.59   0.881
  sub62                    232.27       0.00       0.00       1.00     167.10      13.62     201.72        5.53  4460.07   0.868
  sub63                    232.27       0.00       0.00       4.20     134.22      50.94     203.02        4.61  3645.42   0.874
  sub64                    232.27       0.00       0.00       2.01     152.89      25.13     199.77        4.80  3809.15   0.860
  sub65                    232.27       0.00       0.00       1.85     165.05      22.97     205.56        5.66  4284.38   0.885
  sub66                    232.27       0.00       0.00       4.97     129.94      48.44     198.76        9.27  6514.63   0.856
  sub67                    114.28       0.00       0.00       0.96      83.75       6.41      90.15        1.68  1226.68   0.789
  sub68                    114.28       0.00       0.00       1.69      73.97      10.50      84.47        2.32  1595.45   0.739
  sub69                    232.27       0.00       0.00       1.65     156.38      25.96     202.77        7.51  5754.82   0.873
  sub70                    232.27       0.00       0.00       5.64     125.40      59.02     202.26        5.84  3750.76   0.871
  sub71                    114.28       0.00       0.00       0.90      74.23       5.64      79.87        2.09  1330.69   0.699
  sub72                    114.28       0.00       0.00       0.86      80.21       5.26      85.47        1.18   693.85   0.748
  

  ***********************
  LID Performance Summary
  ***********************

  --------------------------------------------------------------------------------------------------------------------
                                         Total      Evap     Infil   Surface    Drain    Initial     Final  Continuity
                                        Inflow      Loss      Loss   Outflow   Outflow   Storage   Storage       Error
  Subcatchment      LID Control             mm        mm        mm        mm        mm        mm        mm           %
  --------------------------------------------------------------------------------------------------------------------
  sub60             GreenRoof           232.27      0.00      0.00     98.36      0.00      7.05    140.96        0.00
  sub61             GreenRoof           232.27      0.00      0.00     98.36      0.00      7.05    140.96        0.00
  sub62             GreenRoof           232.27      0.00      0.00     98.36      0.00      7.05    140.96        0.00
  sub63             GreenRoof           232.27      0.00      0.00     98.36      0.00      7.05    140.96        0.00
  sub64             GreenRoof           232.27      0.00      0.00     98.36      0.00      7.05    140.96        0.00
  sub65             GreenRoof           232.27      0.00      0.00     98.36      0.00      7.05    140.96        0.00
  sub66             GreenRoof           232.27      0.00      0.00     98.36      0.00      7.05    140.96        0.00
  sub67             GreenRoof           114.28      0.00      0.00      0.00      0.00      7.05    121.33       -0.00
  sub68             GreenRoof           114.28      0.00      0.00      0.00      0.00      7.05    121.33       -0.00
  sub69             GreenRoof           232.27      0.00      0.00     98.36      0.00      7.05    140.96        0.00
  sub70             GreenRoof           232.27      0.00      0.00     98.36      0.00      7.05    140.96        0.00
  sub71             GreenRoof           114.28      0.00      0.00      0.00      0.00      7.05    121.33       -0.00
  sub72             GreenRoof           114.28      0.00      0.00      0.00      0.00      7.05    121.33       -0.00
  
  ******************
  Node Depth Summary
  ******************
  
  ---------------------------------------------------------------------------------
                                 Average  Maximum  Maximum  Time of Max    Reported
                                   Depth    Depth      HGL   Occurrence   Max Depth
  Node                 Type       Meters   Meters   Meters  days hr:min      Meters
  ---------------------------------------------------------------------------------
  WS02003060           JUNCTION     0.22     0.38     5.31     0  02:48        0.38
  WS02003066           JUNCTION     0.19     0.30     5.85     0  02:47        0.30
  WS02003067           JUNCTION     0.50     0.70     6.02     0  02:47        0.70
  WS02003069           JUNCTION     0.25     0.43     5.01     0  02:48        0.43
  WS02003072           JUNCTION     0.31     0.50     4.87     0  02:49        0.50
  WS02003073           JUNCTION     0.18     0.30     4.36     0  02:50        0.30
  WS02004401           JUNCTION     0.59     0.87     6.87     0  02:15        0.87
  WS02004402           JUNCTION     0.63     0.90     6.86     0  02:45        0.90
  WS02004403           JUNCTION     0.65     0.92     6.85     0  02:16        0.92
  WS02004404           JUNCTION     0.73     1.05     6.90     0  02:16        0.99
  WS02004405           JUNCTION     0.72     0.96     6.81     0  02:45        0.96
  WS02004406           JUNCTION     0.73     0.96     6.79     0  02:45        0.95
  WS02004407           JUNCTION     0.17     0.30     6.61     0  02:45        0.30
  WS02004409           JUNCTION     0.38     0.67     6.44     0  02:46        0.67
  WS02004410           JUNCTION     0.41     0.68     6.40     0  02:46        0.68
  WS02004411           JUNCTION     0.43     0.69     6.37     0  02:46        0.69
  WS02004412           JUNCTION     0.45     0.70     6.34     0  02:47        0.70
  WS02004413           JUNCTION     0.62     0.86     6.33     0  02:47        0.86
  WS02006109           JUNCTION     0.64     1.24     7.85     0  00:00        1.02
  WS02006110           JUNCTION     0.65     1.45     8.04     0  00:00        0.97
  WS02006111           JUNCTION     0.17     1.67     8.37     0  00:00        0.56
  WS02006112           JUNCTION     0.75     2.68     8.56     0  00:00        1.29
  WS02006113           JUNCTION     0.26     1.50     8.40     0  00:00        0.46
  WS02006115           JUNCTION     0.47     1.69     7.83     0  00:00        0.86
  WS02006116           JUNCTION     0.56     1.11     7.15     0  00:00        0.85
  WS02006228           JUNCTION     0.64     1.64     8.29     0  00:00        1.05
  WS02006229           JUNCTION     0.61     1.31     8.00     0  00:00        1.13
  WS02006230           JUNCTION     0.61     1.42     8.16     0  02:19        1.18
  WS02006231           JUNCTION     0.41     1.15     8.27     0  03:20        0.93
  WS02006232           JUNCTION     0.55     1.25     8.29     0  02:19        1.16
  WS02006234           JUNCTION     0.48     1.46     8.61     0  03:10        1.22
  WS02006235           JUNCTION     0.52     1.60     8.76     0  03:10        1.42
  WS02006238           JUNCTION     0.54     1.64     8.78     0  03:10        1.47
  WS02006239           JUNCTION     0.52     1.57     8.78     0  03:10        1.47
  WS02006240           JUNCTION     0.49     1.53     8.82     0  03:10        1.44
  WS02006242           JUNCTION     0.56     1.54     8.81     0  03:10        1.47
  WS02006243           JUNCTION     0.48     1.48     8.90     0  01:42        1.31
  WS02006245           JUNCTION     0.49     1.30     8.79     0  01:46        1.23
  WS02006247           JUNCTION     0.51     1.25     8.75     0  01:46        1.19
  WS02006248           JUNCTION     0.47     1.10     8.69     0  01:46        1.10
  WS02006249           JUNCTION     0.51     1.09     8.69     0  01:43        1.09
  WS02006251           JUNCTION     0.50     1.51     9.18     0  01:47        1.13
  WS02006252           JUNCTION     0.35     1.50     9.74     0  00:40        0.76
  WS02006256           JUNCTION     0.96     2.35     9.28     0  00:40        2.35
  WSF200               JUNCTION     0.16     0.29     5.52     0  02:47        0.29
  YS02001580           JUNCTION     0.21     1.05     9.59     0  01:33        0.80
  YS02001583           JUNCTION     0.24     1.14     9.64     0  01:33        0.83
  YS02001586           JUNCTION     0.37     1.13     9.30     0  01:33        1.13
  YS02001590           JUNCTION     0.50     1.38     9.24     0  01:33        1.37
  YS02001593           JUNCTION     0.44     1.31     9.18     0  01:33        1.29
  YS02001596           JUNCTION     0.60     1.68     9.10     0  01:33        1.66
  YS02001600           JUNCTION     0.70     1.87     9.00     0  01:33        1.87
  YS02001601           JUNCTION     0.87     2.06     8.90     0  01:32        2.06
  YS02001602           JUNCTION     0.77     1.87     8.77     0  01:42        1.87
  YS02001605           JUNCTION     0.71     1.78     8.68     0  02:00        1.78
  YS02001607           JUNCTION     0.65     1.65     8.50     0  02:45        1.65
  YS02001610           JUNCTION     0.69     1.68     8.48     0  01:43        1.68
  YS02001613           JUNCTION     0.66     1.70     8.54     0  02:09        1.70
  YS02001616           JUNCTION     0.60     1.61     8.52     0  02:01        1.61
  YS02001619           JUNCTION     0.58     1.61     8.54     0  02:00        1.61
  YS02001622           JUNCTION     0.57     1.62     8.52     0  02:09        1.62
  YS02001625           JUNCTION     0.79     1.78     8.38     0  01:44        1.78
  YS02001629           JUNCTION     0.72     1.85     8.40     0  01:50        1.85
  YS02001633           JUNCTION     0.79     2.08     8.53     0  02:00        2.08
  YS02001641           JUNCTION     0.75     1.98     8.41     0  02:17        1.98
  YS02001644           JUNCTION     0.74     1.92     8.35     0  01:51        1.92
  YS02001647           JUNCTION     0.55     1.79     8.40     0  02:15        1.79
  YS02001649           JUNCTION     0.63     2.05     8.44     0  02:07        2.05
  YS02001652           JUNCTION     0.51     2.16     8.76     0  02:09        2.15
  YS02001655           JUNCTION     0.42     2.20     9.05     0  02:09        2.20
  YS02001658           JUNCTION     0.34     2.30     9.44     0  02:09        2.30
  YS02001661           JUNCTION     0.32     2.46     9.86     0  02:09        2.46
  YS02001664           JUNCTION     0.18     2.31    10.23     0  02:09        2.31
  YS02001745           JUNCTION     0.20     2.35     9.87     0  02:09        2.35
  YS02001748           JUNCTION     0.31     2.27     9.35     0  02:09        2.27
  YS02001751           JUNCTION     0.36     2.20     9.08     0  02:09        2.20
  YS02001754           JUNCTION     0.46     2.17     8.78     0  02:09        2.17
  YS02001757           JUNCTION     0.66     2.21     8.47     0  02:09        2.21
  YS02001759           JUNCTION     0.60     2.21     8.57     0  02:08        2.21
  YS02001762           JUNCTION     0.58     2.15     8.55     0  02:08        2.15
  YS02001765           JUNCTION     0.56     2.10     8.55     0  02:09        2.10
  YS02001767           JUNCTION     0.55     2.03     8.52     0  02:17        2.01
  YS02001770           JUNCTION     0.55     1.95     8.44     0  01:57        1.95
  YS02001774           JUNCTION     0.61     2.05     8.47     0  02:00        2.05
  YS02001779           JUNCTION     0.44     1.68     8.37     0  01:54        1.68
  YS02001783           JUNCTION     0.29     1.32     7.46     0  01:43        1.25
  YS02001784           JUNCTION     0.28     1.20     7.27     0  01:43        1.17
  YS02001786           JUNCTION     0.23     0.92     6.95     0  01:43        0.88
  YS02001788           JUNCTION     0.17     0.63     6.61     0  01:47        0.62
  YS02001790           JUNCTION     0.20     0.73     6.37     0  01:47        0.72
  YS02001791           JUNCTION     0.12     0.44     5.91     0  01:47        0.44
  YS02001793           JUNCTION     0.06     0.31     5.14     0  01:55        0.31
  YS02001882           JUNCTION     0.36     1.75     8.47     0  02:00        1.69
  YS02001884           JUNCTION     0.44     1.83     8.45     0  02:00        1.79
  YS02001887           JUNCTION     0.51     1.88     8.41     0  01:48        1.88
  YS02001890           JUNCTION     0.53     1.81     8.32     0  01:42        1.81
  YS02001895           JUNCTION     0.33     1.60     8.35     0  02:00        1.57
  YS02001898           JUNCTION     0.34     1.61     8.35     0  02:00        1.56
  YS02001901           JUNCTION     0.44     1.71     8.32     0  02:00        1.67
  YS02001904           JUNCTION     0.42     1.66     8.29     0  01:42        1.64
  YS02001907           JUNCTION     0.69     1.96     8.25     0  01:42        1.96
  YS02001910           JUNCTION     0.53     2.01     8.52     0  01:50        2.01
  YS02001915           JUNCTION     0.36     2.00     8.72     0  01:48        2.00
  YS02001918           JUNCTION     0.21     1.81     8.88     0  01:43        1.81
  YS02001920           JUNCTION     0.27     2.14     9.15     0  01:43        1.80
  YS02001923           JUNCTION     0.17     2.03     9.29     0  01:43        1.57
  YS02001926           JUNCTION     0.20     1.90     9.35     0  01:43        1.42
  YS02001929           JUNCTION     0.12     1.77     9.46     0  01:43        1.19
  YS02006553           JUNCTION     0.69     2.00     8.28     0  02:09        2.00
  YS02006556           JUNCTION     0.67     1.99     8.30     0  01:49        1.99
  YS02006558           JUNCTION     0.70     2.05     8.31     0  01:47        2.05
  YS02006561           JUNCTION     0.18     1.04     7.70     0  01:43        0.92
  YS02163301           JUNCTION     0.74     2.03     8.55     0  02:00        2.03
  YS02163601           JUNCTION     0.81     2.08     8.48     0  02:09        2.08
  YS02164001           JUNCTION     0.75     1.98     8.44     0  02:03        1.98
  CC-1                 OUTFALL      0.00     0.00     0.00     0  00:00        0.00
  CC-2                 OUTFALL      0.00     0.00     0.00     0  00:00        0.00
  JK-1                 OUTFALL      0.00     0.00     0.00     0  00:00        0.00
  JK-2                 OUTFALL      0.00     0.00     0.00     0  00:00        0.00
  WSC                  OUTFALL      0.17     0.30     0.97     0  02:50        0.30
  CC-storage           STORAGE      0.98     2.13     7.63     0  02:48        2.13
  JK-storage           STORAGE      1.73     4.22     5.02     0  02:19        4.19
  
  
  *******************
  Node Inflow Summary
  *******************
  
  -------------------------------------------------------------------------------------------------
                                  Maximum  Maximum                  Lateral       Total        Flow
                                  Lateral    Total  Time of Max      Inflow      Inflow     Balance
                                   Inflow   Inflow   Occurrence      Volume      Volume       Error
  Node                 Type           LPS      LPS  days hr:min    10^6 ltr    10^6 ltr     Percent
  -------------------------------------------------------------------------------------------------
  WS02003060           JUNCTION     16.53   551.36     0  02:48       0.476        5.66       0.038
  WS02003066           JUNCTION      0.00   534.59     0  02:47           0        5.19       0.025
  WS02003067           JUNCTION      0.00   534.50     0  02:47           0        5.19       0.077
  WS02003069           JUNCTION      0.32   551.58     0  02:48     0.00922        5.67       0.062
  WS02003072           JUNCTION      0.00   551.25     0  02:49           0        5.66       0.114
  WS02003073           JUNCTION      1.82   552.83     0  02:49      0.0524        5.71       0.092
  WS02004401           JUNCTION      0.00  1786.04     0  00:00           0        5.29       0.201
  WS02004402           JUNCTION      0.00  1248.69     0  00:01           0        5.28       0.203
  WS02004403           JUNCTION      0.00   929.44     0  00:01           0        5.27       0.199
  WS02004404           JUNCTION      0.00   877.02     0  00:01           0        5.26       0.135
  WS02004405           JUNCTION      0.00   827.31     0  00:01           0        5.25       0.203
  WS02004406           JUNCTION      0.00   768.45     0  00:02           0        5.24       0.404
  WS02004407           JUNCTION      0.00   537.57     0  02:45           0        5.22       0.017
  WS02004409           JUNCTION      0.00   536.81     0  02:45           0        5.22       0.045
  WS02004410           JUNCTION      0.00   535.85     0  02:46           0        5.22       0.079
  WS02004411           JUNCTION      0.00   535.30     0  02:46           0        5.21       0.102
  WS02004412           JUNCTION      0.00   534.95     0  02:46           0        5.21       0.135
  WS02004413           JUNCTION      0.00   534.76     0  02:47           0         5.2       0.253
  WS02006109           JUNCTION      0.00  1446.81     0  00:00           0        5.19      -0.182
  WS02006110           JUNCTION      0.00   559.03     0  02:19           0        5.17      -1.052
  WS02006111           JUNCTION      0.00  1180.41     0  00:00           0        5.22      -0.818
  WS02006112           JUNCTION      0.00  2307.30     0  00:00           0        5.26      -0.011
  WS02006113           JUNCTION      0.00   566.82     0  02:20           0        5.18      -0.731
  WS02006115           JUNCTION      0.00   953.54     0  00:00           0        5.23      -0.686
  WS02006116           JUNCTION      0.00  1264.47     0  00:00           0        5.27      -0.446
  WS02006228           JUNCTION      0.00   869.18     0  00:00           0        5.17      -0.038
  WS02006229           JUNCTION      0.00   556.94     0  02:19           0        5.15      -0.048
  WS02006230           JUNCTION     10.28   706.67     0  00:00       0.296        5.14      -0.011
  WS02006231           JUNCTION      0.00   583.79     0  03:20           0        4.83      -0.029
  WS02006232           JUNCTION      0.00   582.57     0  03:20           0        4.83       0.170
  WS02006234           JUNCTION      0.00   575.89     0  03:20           0        4.82      -0.149
  WS02006235           JUNCTION      0.00   563.86     0  03:20           0        4.85       0.149
  WS02006238           JUNCTION      0.00   423.21     0  02:15           0        4.02      -0.184
  WS02006239           JUNCTION      0.00   423.00     0  02:15           0           4      -0.208
  WS02006240           JUNCTION      0.00   421.10     0  02:00           0        3.99      -0.016
  WS02006242           JUNCTION      0.00   420.89     0  02:15           0        3.99       0.068
  WS02006243           JUNCTION      0.00   420.13     0  02:15           0        3.99      -0.051
  WS02006245           JUNCTION      0.00   419.77     0  02:15           0           4       0.293
  WS02006247           JUNCTION      0.00   419.20     0  02:15           0           4      -0.013
  WS02006248           JUNCTION      0.00   418.95     0  02:00           0           4      -0.024
  WS02006249           JUNCTION      0.00   470.25     0  04:15           0        4.23       0.274
  WS02006251           JUNCTION      0.00   411.08     0  01:47           0        4.23       0.040
  WS02006252           JUNCTION      0.00   400.00     0  00:40           0        4.21      -0.314
  WS02006256           JUNCTION      0.00   300.00     0  00:40           0        1.22      -1.339
  WSF200               JUNCTION      0.00   534.65     0  02:47           0        5.18       0.008
  YS02001580           JUNCTION      0.00    56.21     0  01:33           0     0.00436      -0.310
  YS02001583           JUNCTION      0.00    87.42     0  01:33           0      0.0164      -2.215
  YS02001586           JUNCTION   3750.76  3750.79     0  02:13        5.84        5.86       0.018
  YS02001590           JUNCTION      0.00   319.56     0  02:09           0        2.14      -0.027
  YS02001593           JUNCTION      0.00   319.78     0  02:09           0        2.14       0.003
  YS02001596           JUNCTION      0.00   318.04     0  02:37           0        2.14      -0.006
  YS02001600           JUNCTION      0.00   318.16     0  02:40           0        2.14       0.002
  YS02001601           JUNCTION   5754.82  6072.40     0  02:13        7.51        9.65       0.008
  YS02001602           JUNCTION      0.00   498.22     0  01:33           0        3.14       0.009
  YS02001605           JUNCTION      0.00   498.11     0  01:33           0        2.85       0.007
  YS02001607           JUNCTION      0.00   497.98     0  01:33           0        2.85       0.062
  YS02001610           JUNCTION      0.00   956.80     0  02:09           0        4.24       0.051
  YS02001613           JUNCTION      0.00   619.28     0  02:19           0        2.99       0.046
  YS02001616           JUNCTION      0.00   618.76     0  02:19           0        2.99       0.011
  YS02001619           JUNCTION   6514.63  6514.63     0  02:13        9.27        10.9       0.003
  YS02001622           JUNCTION      0.00  1053.95     0  02:17           0        6.45      -0.003
  YS02001625           JUNCTION      0.00  1505.46     0  02:18           0        7.47       0.159
  YS02001629           JUNCTION      0.00  1139.00     0  02:18           0        4.75      -0.010
  YS02001633           JUNCTION   4284.38  4284.38     0  02:13        5.66        8.66       0.036
  YS02001641           JUNCTION      0.00  1331.93     0  01:43           0        6.08       0.045
  YS02001644           JUNCTION   3809.15  5560.63     0  02:13         4.8        11.7       0.030
  YS02001647           JUNCTION      0.00  1668.67     0  01:43           0        6.94       0.001
  YS02001649           JUNCTION      0.00  3107.73     0  02:13           0        10.6      -0.000
  YS02001652           JUNCTION      0.00  2429.26     0  02:15           0        4.34      -0.036
  YS02001655           JUNCTION      0.00  2731.29     0  02:15           0        4.45       0.021
  YS02001658           JUNCTION      0.00  2783.80     0  02:13           0        4.46      -0.019
  YS02001661           JUNCTION      0.00  2783.80     0  02:14           0        4.46      -0.027
  YS02001664           JUNCTION   3645.42  3645.42     0  02:13        4.61        4.61       0.003
  YS02001745           JUNCTION   2193.82  2193.82     0  02:13        2.62        2.62       0.042
  YS02001748           JUNCTION      0.00  2193.67     0  02:13           0        2.62      -0.080
  YS02001751           JUNCTION      0.00  2194.27     0  02:13           0        2.62       0.033
  YS02001754           JUNCTION      0.00  2194.01     0  02:13           0        2.62      -0.060
  YS02001757           JUNCTION      0.00  3638.61     0  02:13           0        16.7       0.021
  YS02001759           JUNCTION   3054.59  3054.59     0  02:13        3.76        5.88      -0.008
  YS02001762           JUNCTION      0.00   730.97     0  01:55           0        2.55      -0.007
  YS02001765           JUNCTION      0.00   731.19     0  01:55           0        2.55      -0.005
  YS02001767           JUNCTION      0.00   730.83     0  01:55           0        2.55      -0.006
  YS02001770           JUNCTION   4460.07  5179.26     0  02:13        5.53           6      -0.001
  YS02001774           JUNCTION      0.00   852.09     0  02:19           0        1.51       0.073
  YS02001779           JUNCTION      0.00   851.74     0  02:13           0        1.47       0.000
  YS02001783           JUNCTION      0.00  1175.31     0  01:49           0        4.61       0.000
  YS02001784           JUNCTION      0.00  1175.09     0  01:49           0        4.61       0.000
  YS02001786           JUNCTION      0.00  1175.48     0  01:49           0        4.61       0.003
  YS02001788           JUNCTION      0.00  1176.18     0  01:49           0        4.61       0.001
  YS02001790           JUNCTION      0.00  1190.45     0  01:47           0        4.61       0.014
  YS02001791           JUNCTION      0.00  1291.14     0  01:47           0        4.61      -0.029
  YS02001793           JUNCTION      0.00  1253.95     0  01:47           0        4.61       0.003
  YS02001882           JUNCTION      0.00    57.13     0  01:41           0      0.0133       3.790
  YS02001884           JUNCTION      0.00    69.48     0  01:41           0      0.0501       4.193
  YS02001887           JUNCTION   1226.68  1227.36     0  01:49        1.68        1.71       0.233
  YS02001890           JUNCTION      0.00  1228.66     0  01:49           0        1.67       0.251
  YS02001895           JUNCTION      0.00   518.70     0  01:51           0        1.36       0.135
  YS02001898           JUNCTION      0.00   518.25     0  01:51           0        1.36      -0.061
  YS02001901           JUNCTION      0.00   518.95     0  01:51           0        1.36       0.200
  YS02001904           JUNCTION      0.00   518.40     0  01:51           0        1.36       0.159
  YS02001907           JUNCTION      0.00  2931.90     0  01:50           0        4.73       0.352
  YS02001910           JUNCTION      0.00  1992.81     0  01:51           0        3.26       0.186
  YS02001915           JUNCTION   1330.69  2018.06     0  01:50        2.09         3.3       0.023
  YS02001918           JUNCTION      0.00   694.50     0  01:50           0        1.24      -0.016
  YS02001920           JUNCTION      0.00   694.49     0  01:51           0        1.22       0.035
  YS02001923           JUNCTION      0.00   694.09     0  01:51           0        1.21      -0.091
  YS02001926           JUNCTION      0.00   694.10     0  01:50           0        1.19      -0.092
  YS02001929           JUNCTION    693.85   693.85     0  01:51        1.18        1.18      -0.022
  YS02006553           JUNCTION      0.00   789.97     0  02:13           0        2.56       0.444
  YS02006556           JUNCTION      0.00   790.03     0  02:13           0        2.58       0.287
  YS02006558           JUNCTION   1595.45  1595.45     0  01:50        2.33        4.76       0.073
  YS02006561           JUNCTION      0.00  1175.15     0  01:49           0        4.61      -0.003
  YS02163301           JUNCTION      0.00  1138.88     0  02:17           0        4.76       0.033
  YS02163601           JUNCTION      0.00  1332.02     0  01:43           0        6.07       0.082
  YS02164001           JUNCTION      0.00  1331.97     0  01:43           0        6.07       0.028
  CC-1                 OUTFALL       0.00   683.00     0  00:20           0        6.84       0.000
  CC-2                 OUTFALL       0.00   683.00     0  00:20           0         6.3       0.000
  JK-1                 OUTFALL       0.00  1000.00     0  01:30           0        1.91       0.000
  JK-2                 OUTFALL       0.00  1000.00     0  00:30           0        1.61       0.000
  WSC                  OUTFALL       0.00   552.45     0  02:50           0         5.7       0.000
  CC-storage           STORAGE       0.00  3142.72     0  01:56           0        18.7      -0.168
  JK-storage           STORAGE       0.00  1293.29     0  01:47           0        4.76      -0.368
  
  
  **********************
  Node Surcharge Summary
  **********************
  
  Surcharging occurs when water rises above the top of the highest conduit.
  ---------------------------------------------------------------------
                                               Max. Height   Min. Depth
                                   Hours       Above Crown    Below Rim
  Node                 Type      Surcharged         Meters       Meters
  ---------------------------------------------------------------------
  WS02004404           JUNCTION        0.01          0.048        2.732
  WS02006109           JUNCTION        2.33          0.416        1.404
  WS02006110           JUNCTION        0.71          0.544        1.306
  WS02006111           JUNCTION        0.01          0.856        1.014
  WS02006112           JUNCTION        0.91          1.680        0.000
  WS02006113           JUNCTION        0.01          0.705        1.225
  WS02006115           JUNCTION        0.01          0.682        1.568
  WS02006116           JUNCTION        0.01          0.053        2.237
  WS02006228           JUNCTION        2.32          0.810        1.390
  WS02006229           JUNCTION        2.33          0.510        1.940
  WS02006230           JUNCTION        0.72          0.340        1.230
  WS02006231           JUNCTION        0.87          0.442        1.088
  WS02006232           JUNCTION        2.36          0.554        0.926
  WS02006234           JUNCTION        1.35          0.736        0.504
  WS02006235           JUNCTION        2.29          0.886        0.404
  WS02006238           JUNCTION        2.32          0.919        0.511
  WS02006239           JUNCTION        2.30          0.832        0.458
  WS02006240           JUNCTION        2.31          0.818        0.572
  WS02006242           JUNCTION        2.33          0.815        0.005
  WS02006243           JUNCTION        2.30          0.766        0.004
  WS02006245           JUNCTION        2.28          0.594        0.256
  WS02006247           JUNCTION        2.28          0.541        0.219
  WS02006248           JUNCTION        2.26          0.380        0.000
  WS02006249           JUNCTION        2.26          0.390        0.000
  WS02006251           JUNCTION        0.93          0.484        0.696
  WS02006252           JUNCTION        2.61          1.100        0.000
  WS02006256           JUNCTION        6.47          2.050        0.000
  YS02001580           JUNCTION        1.44          0.450        0.000
  YS02001583           JUNCTION        1.44          0.500        0.000
  YS02001586           JUNCTION        1.56          0.510        0.000
  YS02001590           JUNCTION        1.64          0.732        0.018
  YS02001593           JUNCTION        1.63          0.693        0.147
  YS02001596           JUNCTION        1.76          0.947        0.123
  YS02001600           JUNCTION        1.89          1.190        0.000
  YS02001601           JUNCTION        2.13          1.440        0.000
  YS02001602           JUNCTION        2.06          1.270        0.000
  YS02001605           JUNCTION        2.03          1.180        0.000
  YS02001607           JUNCTION        1.64          0.653        0.027
  YS02001610           JUNCTION        1.67          0.680        0.000
  YS02001613           JUNCTION        1.64          0.700        0.000
  YS02001616           JUNCTION        1.59          0.610        0.000
  YS02001619           JUNCTION        1.58          0.610        0.000
  YS02001622           JUNCTION        1.59          0.620        0.000
  YS02001625           JUNCTION        1.77          0.780        0.000
  YS02001629           JUNCTION        1.51          0.470        0.000
  YS02001633           JUNCTION        1.83          1.060        0.000
  YS02001641           JUNCTION        1.78          0.977        0.123
  YS02001644           JUNCTION        1.75          0.920        0.000
  YS02001647           JUNCTION        1.47          0.794        0.106
  YS02001649           JUNCTION        1.59          1.050        0.000
  YS02001652           JUNCTION        1.40          1.130        0.000
  YS02001655           JUNCTION        1.27          1.200        0.000
  YS02001658           JUNCTION        0.94          1.300        0.000
  YS02001661           JUNCTION        0.42          1.390        0.000
  YS02001664           JUNCTION        0.24          1.310        0.000
  YS02001745           JUNCTION        0.22          1.350        0.000
  YS02001748           JUNCTION        0.77          1.190        0.000
  YS02001751           JUNCTION        1.19          1.200        0.000
  YS02001754           JUNCTION        1.34          1.122        0.028
  YS02001757           JUNCTION        1.66          1.210        0.000
  YS02001759           JUNCTION        1.57          1.210        0.000
  YS02001762           JUNCTION        1.54          1.150        0.000
  YS02001765           JUNCTION        1.50          1.100        0.000
  YS02001767           JUNCTION        1.48          1.030        0.000
  YS02001770           JUNCTION        1.45          0.920        0.000
  YS02001774           JUNCTION        1.53          1.050        0.000
  YS02001779           JUNCTION        1.33          0.680        0.000
  YS02001783           JUNCTION        0.69          0.518        1.082
  YS02001784           JUNCTION        0.66          0.400        1.090
  YS02001786           JUNCTION        0.55          0.121        1.309
  YS02001882           JUNCTION        0.63          0.751        0.079
  YS02001884           JUNCTION        0.64          0.769        0.101
  YS02001887           JUNCTION        0.68          0.826        0.124
  YS02001890           JUNCTION        0.70          0.760        0.000
  YS02001895           JUNCTION        0.62          0.598        0.152
  YS02001898           JUNCTION        0.61          0.583        0.157
  YS02001901           JUNCTION        0.67          0.713        0.157
  YS02001904           JUNCTION        0.65          0.656        0.194
  YS02001907           JUNCTION        0.93          0.950        0.000
  YS02001910           JUNCTION        0.72          1.014        0.086
  YS02001915           JUNCTION        0.63          1.000        0.000
  YS02001918           JUNCTION        0.53          0.810        0.000
  YS02001920           JUNCTION        0.55          1.140        0.000
  YS02001923           JUNCTION        0.21          0.820        0.000
  YS02001926           JUNCTION        0.23          0.900        0.000
  YS02001929           JUNCTION        0.11          0.769        0.011
  YS02006553           JUNCTION        0.96          0.998        0.192
  YS02006556           JUNCTION        0.82          0.947        0.403
  YS02006558           JUNCTION        0.81          0.947        0.453
  YS02006561           JUNCTION        0.50          0.238        0.912
  YS02163301           JUNCTION        1.80          1.030        0.000
  YS02163601           JUNCTION        1.88          1.080        0.000
  YS02164001           JUNCTION        1.78          0.983        0.117
  
  
  *********************
  Node Flooding Summary
  *********************
  
  Flooding refers to all water that overflows a node, whether it ponds or not.
  --------------------------------------------------------------------------
                                                             Total   Maximum
                                 Maximum   Time of Max       Flood    Ponded
                        Hours       Rate    Occurrence      Volume     Depth
  Node                 Flooded       LPS   days hr:min    10^6 ltr    Meters
  --------------------------------------------------------------------------
  WS02006112              0.01   1405.86      0  00:00       0.047     0.000
  WS02006248              0.01     25.98      0  01:46       0.000     0.000
  WS02006249              0.89    133.20      0  01:47       0.213     0.000
  WS02006252              0.01      0.91      0  00:40       0.000     0.000
  WS02006256              1.13    296.84      0  01:42       0.410     0.000
  YS02001580              0.01     33.51      0  01:33       0.000     0.000
  YS02001583              0.01     35.82      0  01:33       0.000     0.000
  YS02001586              1.25   3431.16      0  02:13       3.704     0.000
  YS02001600              0.01      0.61      0  01:33       0.000     0.000
  YS02001601              1.50   5670.42      0  02:13       6.500     0.000
  YS02001602              1.35     62.15      0  01:57       0.291     0.000
  YS02001605              0.01      0.10      0  02:00       0.000     0.000
  YS02001610              1.28    954.68      0  02:19       2.637     0.000
  YS02001613              0.01      1.03      0  02:09       0.000     0.000
  YS02001616              0.14      1.85      0  02:09       0.000     0.000
  YS02001619              0.46   4840.41      0  02:13       3.028     0.000
  YS02001622              0.01      0.41      0  02:09       0.000     0.000
  YS02001625              1.28   1505.26      0  02:18       4.459     0.000
  YS02001629              0.50    686.83      0  02:18       0.736     0.000
  YS02001633              0.22   2237.69      0  02:13       0.831     0.000
  YS02001644              0.77   5557.92      0  02:13       5.576     0.000
  YS02001649              0.21   2260.20      0  02:13       1.040     0.000
  YS02001652              0.01      4.08      0  02:09       0.000     0.000
  YS02001655              0.12    303.08      0  02:15       0.111     0.000
  YS02001658              0.09     52.19      0  02:12       0.016     0.000
  YS02001661              0.01      1.51      0  02:09       0.000     0.000
  YS02001664              0.09    860.42      0  02:13       0.145     0.000
  YS02001745              0.01      3.48      0  02:09       0.000     0.000
  YS02001748              0.01      1.90      0  02:09       0.000     0.000
  YS02001751              0.01      0.52      0  02:09       0.000     0.000
  YS02001757              0.01     75.39      0  02:09       0.000     0.000
  YS02001759              0.10    889.45      0  02:13       0.156     0.000
  YS02001762              0.06      7.04      0  02:17       0.000     0.000
  YS02001765              0.01      4.70      0  02:17       0.000     0.000
  YS02001767              0.01      1.73      0  02:17       0.000     0.000
  YS02001770              0.35   4325.53      0  02:13       2.387     0.000
  YS02001774              0.01      0.82      0  02:00       0.000     0.000
  YS02001779              0.68    851.46      0  02:13       1.450     0.000
  YS02001890              0.28    712.27      0  01:49       0.306     0.000
  YS02001907              0.47   2931.17      0  01:50       2.282     0.000
  YS02001915              0.03     30.68      0  01:50       0.002     0.000
  YS02001918              0.01    203.41      0  01:43       0.003     0.000
  YS02001920              0.01     55.32      0  01:43       0.000     0.000
  YS02001923              0.01    113.16      0  01:43       0.000     0.000
  YS02001926              0.01    239.80      0  01:43       0.001     0.000
  YS02163601              0.01      0.90      0  02:09       0.000     0.000
  
  
  **********************
  Storage Volume Summary
  **********************
  
  --------------------------------------------------------------------------------------------------
                         Average     Avg  Evap Exfil       Maximum     Max    Time of Max    Maximum
                          Volume    Pcnt  Pcnt  Pcnt        Volume    Pcnt     Occurrence    Outflow
  Storage Unit           1000 m3    Full  Loss  Loss       1000 m3    Full    days hr:min        LPS
  --------------------------------------------------------------------------------------------------
  CC-storage               2.721      42     0     0         5.950      93       0  02:48    1766.00
  JK-storage               0.087      30     0     0         0.212      73       0  02:19    2300.00
  
  
  ***********************
  Outfall Loading Summary
  ***********************
  
  -----------------------------------------------------------
                         Flow       Avg       Max       Total
                         Freq      Flow      Flow      Volume
  Outfall Node           Pcnt       LPS       LPS    10^6 ltr
  -----------------------------------------------------------
  CC-1                  52.56    683.00    683.00       6.837
  CC-2                  49.62    683.00    683.00       6.299
  JK-1                  10.01   1000.00   1000.00       1.908
  JK-2                   9.49   1000.00   1000.00       1.613
  WSC                   99.99    238.81    552.45       5.704
  -----------------------------------------------------------
  System                44.33   3604.81    552.45      22.361
  
  
  ********************
  Link Flow Summary
  ********************
  
  -----------------------------------------------------------------------------
                                 Maximum  Time of Max   Maximum    Max/    Max/
                                  |Flow|   Occurrence   |Veloc|    Full    Full
  Link                 Type          LPS  days hr:min     m/sec    Flow   Depth
  -----------------------------------------------------------------------------
  1                    CONDUIT    552.45     0  02:50      2.82    0.19    0.30
  WS02003060WS02003069 CONDUIT    551.26     0  02:48      1.64    0.22    0.34
  WS02003066WSF200     CONDUIT    534.65     0  02:47      2.85    0.09    0.22
  WS02003067WS02003066 CONDUIT    534.59     0  02:47      1.20    0.17    0.42
  WS02003069WS02003072 CONDUIT    551.25     0  02:49      1.37    0.27    0.39
  WS02003072WS02003073 CONDUIT    551.01     0  02:49      1.43    1.19    0.37
  WS02004401WS02004402 CONDUIT   1248.69     0  00:01      2.52    1.50    0.89
  WS02004402WS02004403 CONDUIT    929.44     0  00:01      2.21    1.34    0.91
  WS02004403WS02004404 CONDUIT    877.02     0  00:01      2.01    0.63    0.96
  WS02004404WS02004405 CONDUIT    827.31     0  00:01      2.30    8.11    0.98
  WS02004405WS02004406 CONDUIT    768.45     0  00:02      2.19    1.52    0.96
  WS02004406WS02004407 CONDUIT    537.57     0  02:45      1.04    0.24    0.63
  WS02004407WS02004409 CONDUIT    536.81     0  02:45      2.06    0.19    0.48
  WS02004409WS02004410 CONDUIT    535.85     0  02:46      1.39    0.69    0.67
  WS02004410WS02004411 CONDUIT    535.30     0  02:46      1.32    0.73    0.68
  WS02004411WS02004412 CONDUIT    534.95     0  02:46      1.28    0.76    0.69
  WS02004412WS02004413 CONDUIT    534.76     0  02:47      1.25    0.36    0.78
  WS02004413WS02003067 CONDUIT    534.50     0  02:47      1.11    0.23    0.59
  WS02006109WS02006110 CONDUIT   1446.81     0  00:00      2.88    2.78    1.00
  WS02006110WS02006113 CONDUIT    566.82     0  02:20      1.37    0.52    1.00
  WS02006111WS02006112 CONDUIT   2307.30     0  00:00      9.18    1.10    1.00
  WS02006112WS02006115 CONDUIT    953.54     0  00:00      1.24    0.56    1.00
  WS02006113WS02006111 CONDUIT   1180.41     0  00:00      2.46    1.41    1.00
  WS02006115WS02006116 CONDUIT   1264.47     0  00:00      1.74    1.62    1.00
  WS02006116WS02004401 CONDUIT   1786.04     0  00:00      2.94    2.46    0.86
  WS02006228WS02006109 CONDUIT    869.18     0  00:00      1.91    3.80    1.00
  WS02006229WS02006228 CONDUIT    557.31     0  02:19      1.11    1.85    1.00
  WS02006230WS02006229 CONDUIT    696.39     0  00:00      1.89   15.50    1.00
  WS02006231WS02006230 CONDUIT    578.99     0  03:00      1.91    8.78    1.00
  WS02006232WS02006231 CONDUIT    583.79     0  03:20      1.80    1.22    1.00
  WS02006234WS02006232 CONDUIT    582.57     0  03:20      1.51    1.18    1.00
  WS02006235WS02006234 CONDUIT    575.89     0  03:20      1.50    6.08    1.00
  WS02006238WS02006235 CONDUIT    424.36     0  02:15      1.37    0.95    1.00
  WS02006239WS02006238 CONDUIT    423.21     0  02:15      1.19    1.35    1.00
  WS02006240WS02006239 CONDUIT    423.00     0  02:15      1.30    1.33    1.00
  WS02006242WS02006240 CONDUIT    421.10     0  02:00      1.16    1.67    1.00
  WS02006243WS02006242 CONDUIT    420.89     0  02:15      1.41    0.90    1.00
  WS02006245WS02006243 CONDUIT    420.13     0  02:15      1.44    1.24    1.00
  WS02006247WS02006245 CONDUIT    419.77     0  02:15      1.39    3.33    1.00
  WS02006248WS02006247 CONDUIT    419.20     0  02:15      1.45    0.91    1.00
  WS02006249WS02006248 CONDUIT    418.95     0  02:00      1.38    2.29    1.00
  WS02006251WS02006249 CONDUIT    470.25     0  04:15      1.83    1.36    1.00
  WS02006252WS02006251 CONDUIT    411.08     0  01:47     24.84    1.51    1.00
  WS02006256WS02006235 CONDUIT    288.03     0  04:50      4.18    3.05    1.00
  WSF200WS02003060     CONDUIT    534.83     0  02:48      2.06    0.12    0.28
  YS02001580YS02001583 CONDUIT     56.21     0  01:33      0.45    0.22    1.00
  YS02001583YS02001586 CONDUIT     87.42     0  01:33      0.38    0.13    1.00
  YS02001586YS02001590 CONDUIT    319.56     0  02:09      1.25    0.56    1.00
  YS02001590YS02001593 CONDUIT    319.78     0  02:09      1.13    2.01    1.00
  YS02001593YS02001596 CONDUIT    318.04     0  02:37      1.70    0.50    1.00
  YS02001596YS02001600 CONDUIT    318.16     0  02:40      1.25    0.62    1.00
  YS02001600YS02001601 CONDUIT    318.24     0  02:09      1.13    0.55    1.00
  YS02001601YS02001602 CONDUIT    498.22     0  01:33      1.76    1.80    1.00
  YS02001602YS02001605 CONDUIT    498.11     0  01:33      1.76   10.54    1.00
  YS02001605YS02001607 CONDUIT    497.98     0  01:33      1.76    2.73    1.00
  YS02001607YS02001610 CONDUIT    498.54     0  01:33      0.63    0.47    1.00
  YS02001610YS02001613 CONDUIT    618.72     0  02:19      0.79    0.71    1.00
  YS02001613YS02001616 CONDUIT    619.28     0  02:19      0.79    0.53    1.00
  YS02001616YS02001619 CONDUIT    618.76     0  02:19      0.79    1.07    1.00
  YS02001619YS02001622 CONDUIT   1053.95     0  02:17      1.34    1.55    1.00
  YS02001622YS02001625 CONDUIT   1053.69     0  02:07      1.34    0.56    1.00
  YS02001625YS02001629 CONDUIT    934.21     0  01:42      1.19    0.44    1.00
  YS02001629YS02163301 CONDUIT   1139.00     0  02:18      1.45    1.40    1.00
  YS02001633YS02163601 CONDUIT   1332.02     0  01:43      1.70    1.40    1.00
  YS02001641YS02001644 CONDUIT   1330.82     0  01:43      1.69    4.30    1.00
  YS02001644YS02001647 CONDUIT   1668.67     0  01:43      2.16    0.98    1.00
  YS02001647YS02001649 CONDUIT   1666.70     0  01:44      2.30    0.88    1.00
  YS02001649YS02001757 CONDUIT   1928.46     0  01:45      2.52    1.17    1.00
  YS02001652YS02001649 CONDUIT   2429.29     0  02:15      3.09    1.20    1.00
  YS02001655YS02001652 CONDUIT   2429.26     0  02:15      3.09    1.18    1.00
  YS02001658YS02001655 CONDUIT   2731.29     0  02:15      3.48    1.16    1.00
  YS02001661YS02001658 CONDUIT   2783.80     0  02:13      3.54    1.09    1.00
  YS02001664YS02001661 CONDUIT   2783.80     0  02:14      3.54    0.87    1.00
  YS02001745YS02001748 CONDUIT   2193.67     0  02:13      2.79    0.84    1.00
  YS02001748YS02001751 CONDUIT   2194.27     0  02:13      2.79    1.11    1.00
  YS02001751YS02001754 CONDUIT   2194.01     0  02:13      2.79    1.06    1.00
  YS02001754YS02001757 CONDUIT   2194.34     0  02:13      2.79    0.88    1.00
  YS02001757CaochengTiaoxuchi CONDUIT   3142.72     0  01:56      4.00    1.36    1.00
  YS02001759YS02001757 CONDUIT   1605.27     0  02:15      2.04    1.14    1.00
  YS02001762YS02001759 CONDUIT    730.97     0  01:56      0.93    0.84    1.00
  YS02001765YS02001762 CONDUIT    730.97     0  01:55      0.93    0.69    1.00
  YS02001767YS02001765 CONDUIT    731.19     0  01:55      0.93    0.92    1.00
  YS02001770YS02001767 CONDUIT    730.83     0  01:55      0.93    2.89    1.00
  YS02001774YS02001770 CONDUIT    852.09     0  02:19      1.08    0.54    1.00
  YS02001779YS02001774 CONDUIT    851.74     0  02:13      1.08    0.43    1.00
  YS02001783YS02001784 CONDUIT   1175.09     0  01:49      2.34    1.62    1.00
  YS02001784YS02001785 CONDUIT   1175.48     0  01:49      2.34    2.74    1.00
  YS02001786YS02001788 CONDUIT   1176.18     0  01:49      2.50    2.27    0.89
  YS02001788YS02001790 CONDUIT   1190.45     0  01:47      2.74    0.88    0.84
  YS02001790YS02001791 CONDUIT   1291.14     0  01:47      3.43    1.40    0.70
  YS02001791YS02001793 CONDUIT   1253.95     0  01:47      6.78    0.54    0.45
  YS02001793JiankangQianchi CONDUIT   1293.29     0  01:47      2.58    0.10    0.66
  YS02001882YS02001884 CONDUIT     57.13     0  01:41      0.21    0.07    1.00
  YS02001884YS02001887 CONDUIT     68.00     0  01:41      0.16    0.09    1.00
  YS02001887YS02001890 CONDUIT   1228.66     0  01:49      1.56    2.10    1.00
  YS02001890YS02001895 CONDUIT    518.70     0  01:51      0.66    0.24    1.00
  YS02001895YS02001898 CONDUIT    518.25     0  01:51      0.66    0.90    1.00
  YS02001898YS02001901 CONDUIT    518.95     0  01:51      0.66    0.33    1.00
  YS02001901YS02001904 CONDUIT    518.40     0  01:51      0.66    0.80    1.00
  YS02001904YS02001907 CONDUIT    518.90     0  01:51      0.66    0.18    1.00
  YS02001907YS02006553 CONDUIT    789.97     0  02:13      0.88    0.93    1.00
  YS02001910YS02001907 CONDUIT   1992.38     0  01:51      2.54    1.12    1.00
  YS02001915YS02001910 CONDUIT   1992.81     0  01:51      2.54    0.99    1.00
  YS02001918YS02001915 CONDUIT    694.11     0  01:50      0.88    0.38    1.00
  YS02001920YS02001918 CONDUIT    694.50     0  01:50      0.88    0.67    1.00
  YS02001923YS02001920 CONDUIT    694.49     0  01:51      0.88    0.31    1.00
  YS02001926YS02001923 CONDUIT    694.09     0  01:51      0.98    0.99    1.00
  YS02001929YS02001926 CONDUIT    694.10     0  01:50      1.15    0.33    1.00
  YS02006553YS02006556 CONDUIT    790.03     0  02:13      1.01    0.68    1.00
  YS02006556YS02006558 CONDUIT    790.85     0  02:13      1.01    0.62    1.00
  YS02006558YS02006561 CONDUIT   1175.15     0  01:49      4.16    2.60    1.00
  YS02006561YS02001783 CONDUIT   1175.31     0  01:49      2.34    0.61    1.00
  YS02163301YS02001633 CONDUIT   1138.88     0  02:17      1.45    1.07    1.00
  YS02163601YS02164001 CONDUIT   1331.97     0  01:43      1.70    1.18    1.00
  YS02164001YS02001641 CONDUIT   1331.93     0  01:43      1.70    1.82    1.00
  CC-R1                PUMP       683.00     0  00:20              1.00
  CC-R2                PUMP       683.00     0  00:20              1.00
  CC-S1                PUMP       200.00     0  00:20              1.00
  CC-S2                PUMP       200.00     0  00:30              1.00
  JK-R1                PUMP      1000.00     0  01:30              1.00
  JK-R2                PUMP      1000.00     0  00:30              1.00
  JK-S                 PUMP       300.00     0  00:40              1.00
  
  
  ***************************
  Flow Classification Summary
  ***************************
  
  -------------------------------------------------------------------------------------
                      Adjusted    ---------- Fraction of Time in Flow Class ---------- 
                       /Actual         Up    Down  Sub   Sup   Up    Down  Norm  Inlet 
  Conduit               Length    Dry  Dry   Dry   Crit  Crit  Crit  Crit  Ltd   Ctrl  
  -------------------------------------------------------------------------------------
  1                       1.00   0.00  0.00  0.00  0.00  1.00  0.00  0.00  0.54  0.00
  WS02003060WS02003069    1.00   0.00  0.00  0.00  0.93  0.07  0.00  0.00  0.63  0.00
  WS02003066WSF200        1.00   0.01  0.00  0.00  0.00  0.99  0.00  0.00  0.87  0.00
  WS02003067WS02003066    1.00   0.01  0.00  0.00  0.99  0.00  0.00  0.00  0.00  0.00
  WS02003069WS02003072    1.00   0.00  0.00  0.00  1.00  0.00  0.00  0.00  0.68  0.00
  WS02003072WS02003073    1.00   0.00  0.00  0.00  0.00  0.00  0.00  1.00  0.00  0.00
  WS02004401WS02004402    1.00   0.00  0.00  0.00  1.00  0.00  0.00  0.00  0.00  0.00
  WS02004402WS02004403    1.00   0.00  0.00  0.00  1.00  0.00  0.00  0.00  0.00  0.00
  WS02004403WS02004404    1.00   0.00  0.00  0.00  1.00  0.00  0.00  0.00  0.00  0.00
  WS02004404WS02004405    1.00   0.00  0.00  0.00  1.00  0.00  0.00  0.00  0.01  0.00
  WS02004405WS02004406    1.00   0.00  0.00  0.00  1.00  0.00  0.00  0.00  0.00  0.00
  WS02004406WS02004407    1.00   0.00  0.00  0.00  1.00  0.00  0.00  0.00  0.00  0.00
  WS02004407WS02004409    1.00   0.00  0.00  0.00  0.99  0.00  0.00  0.00  0.99  0.00
  WS02004409WS02004410    1.00   0.00  0.00  0.00  1.00  0.00  0.00  0.00  0.00  0.00
  WS02004410WS02004411    1.00   0.00  0.00  0.00  1.00  0.00  0.00  0.00  0.00  0.00
  WS02004411WS02004412    1.00   0.00  0.00  0.00  1.00  0.00  0.00  0.00  0.00  0.00
  WS02004412WS02004413    1.00   0.00  0.00  0.00  0.99  0.00  0.00  0.00  0.00  0.00
  WS02004413WS02003067    1.00   0.00  0.00  0.00  0.00  0.00  0.99  0.00  0.00  0.00
  WS02006109WS02006110    1.00   0.00  0.00  0.00  1.00  0.00  0.00  0.00  0.00  0.00
  WS02006110WS02006113    1.00   0.00  0.00  0.00  1.00  0.00  0.00  0.00  0.00  0.00
  WS02006111WS02006112    1.00   0.00  0.00  0.00  1.00  0.00  0.00  0.00  1.00  0.00
  WS02006112WS02006115    1.00   0.00  0.00  0.00  1.00  0.00  0.00  0.00  0.00  0.00
  WS02006113WS02006111    1.00   0.00  0.00  0.00  0.00  1.00  0.00  0.00  0.15  0.00
  WS02006115WS02006116    1.00   0.00  0.00  0.00  1.00  0.00  0.00  0.00  0.00  0.00
  WS02006116WS02004401    1.00   0.00  0.00  0.00  1.00  0.00  0.00  0.00  0.00  0.00
  WS02006228WS02006109    1.00   0.00  0.00  0.00  1.00  0.00  0.00  0.00  0.00  0.00
  WS02006229WS02006228    1.00   0.00  0.00  0.00  1.00  0.00  0.00  0.00  0.00  0.00
  WS02006230WS02006229    1.00   0.00  0.00  0.00  1.00  0.00  0.00  0.00  0.03  0.00
  WS02006231WS02006230    1.00   0.00  0.00  0.00  0.42  0.00  0.58  0.00  0.00  0.00
  WS02006232WS02006231    1.00   0.00  0.00  0.00  0.99  0.00  0.01  0.00  0.00  0.00
  WS02006234WS02006232    1.00   0.00  0.00  0.00  1.00  0.00  0.00  0.00  0.05  0.00
  WS02006235WS02006234    1.00   0.00  0.00  0.00  0.89  0.00  0.10  0.00  0.00  0.00
  WS02006238WS02006235    1.00   0.00  0.00  0.00  1.00  0.00  0.00  0.00  0.00  0.00
  WS02006239WS02006238    1.00   0.00  0.00  0.00  0.99  0.00  0.00  0.00  0.25  0.00
  WS02006240WS02006239    1.00   0.04  0.00  0.00  0.77  0.00  0.00  0.19  0.02  0.00
  WS02006242WS02006240    1.00   0.03  0.01  0.00  0.94  0.00  0.02  0.00  0.00  0.00
  WS02006243WS02006242    1.00   0.03  0.00  0.00  0.95  0.00  0.00  0.02  0.50  0.00
  WS02006245WS02006243    1.00   0.03  0.00  0.00  0.86  0.00  0.00  0.11  0.01  0.00
  WS02006247WS02006245    1.00   0.02  0.00  0.00  0.94  0.00  0.00  0.03  0.00  0.00
  WS02006248WS02006247    1.00   0.02  0.00  0.00  0.96  0.00  0.00  0.02  0.47  0.00
  WS02006249WS02006248    1.00   0.02  0.00  0.00  0.72  0.00  0.26  0.00  0.00  0.00
  WS02006251WS02006249    1.00   0.02  0.00  0.00  0.97  0.01  0.00  0.00  0.48  0.00
  WS02006252WS02006251    1.00   0.03  0.24  0.00  0.14  0.00  0.59  0.00  0.00  0.00
  WS02006256WS02006235    1.00   0.00  0.00  0.00  0.99  0.01  0.00  0.00  0.01  0.00
  WSF200WS02003060        1.00   0.00  0.01  0.00  0.27  0.72  0.00  0.00  0.60  0.00
  YS02001580YS02001583    1.00   0.27  0.31  0.00  0.41  0.00  0.00  0.00  0.61  0.00
  YS02001583YS02001586    1.00   0.32  0.18  0.00  0.50  0.00  0.01  0.00  0.61  0.00
  YS02001586YS02001590    1.00   0.17  0.00  0.00  0.64  0.02  0.00  0.17  0.28  0.00
  YS02001590YS02001593    1.00   0.18  0.00  0.00  0.36  0.00  0.46  0.00  0.00  0.00
  YS02001593YS02001596    1.00   0.18  0.00  0.00  0.40  0.01  0.00  0.41  0.02  0.00
  YS02001596YS02001600    1.00   0.18  0.00  0.00  0.45  0.01  0.00  0.37  0.03  0.00
  YS02001600YS02001601    1.00   0.18  0.00  0.00  0.82  0.00  0.00  0.00  0.56  0.00
  YS02001601YS02001602    1.00   0.17  0.00  0.00  0.82  0.00  0.00  0.00  0.00  0.00
  YS02001602YS02001605    1.00   0.18  0.00  0.00  0.82  0.00  0.00  0.00  0.00  0.00
  YS02001605YS02001607    1.00   0.18  0.00  0.00  0.82  0.00  0.00  0.00  0.00  0.00
  YS02001607YS02001610    1.00   0.18  0.00  0.00  0.82  0.00  0.00  0.00  0.00  0.00
  YS02001610YS02001613    1.00   0.18  0.00  0.00  0.82  0.00  0.00  0.00  0.00  0.00
  YS02001613YS02001616    1.00   0.18  0.00  0.00  0.82  0.00  0.00  0.00  0.00  0.00
  YS02001616YS02001619    1.00   0.17  0.00  0.00  0.83  0.00  0.00  0.00  0.00  0.00
  YS02001619YS02001622    1.00   0.17  0.00  0.00  0.82  0.00  0.00  0.00  0.31  0.00
  YS02001622YS02001625    1.00   0.18  0.00  0.00  0.82  0.00  0.00  0.00  0.01  0.00
  YS02001625YS02001629    1.00   0.18  0.01  0.00  0.44  0.00  0.37  0.00  0.00  0.00
  YS02001629YS02163301    1.00   0.18  0.00  0.00  0.82  0.00  0.00  0.00  0.00  0.00
  YS02001633YS02163601    1.00   0.18  0.00  0.00  0.82  0.00  0.00  0.00  0.00  0.00
  YS02001641YS02001644    1.00   0.17  0.00  0.00  0.82  0.00  0.00  0.00  0.00  0.00
  YS02001644YS02001647    1.00   0.17  0.01  0.00  0.81  0.00  0.00  0.00  0.00  0.00
  YS02001647YS02001649    1.00   0.18  0.01  0.00  0.66  0.15  0.00  0.00  0.56  0.00
  YS02001649YS02001757    1.00   0.00  0.18  0.00  0.61  0.21  0.00  0.00  0.09  0.00
  YS02001652YS02001649    1.00   0.18  0.00  0.00  0.81  0.01  0.00  0.00  0.53  0.00
  YS02001655YS02001652    1.00   0.18  0.00  0.00  0.47  0.01  0.00  0.34  0.05  0.00
  YS02001658YS02001655    1.00   0.18  0.00  0.00  0.64  0.18  0.00  0.00  0.58  0.00
  YS02001661YS02001658    1.00   0.18  0.00  0.00  0.47  0.35  0.00  0.00  0.60  0.00
  YS02001664YS02001661    1.00   0.17  0.00  0.00  0.63  0.19  0.00  0.00  0.77  0.00
  YS02001745YS02001748    1.00   0.17  0.00  0.00  0.27  0.01  0.00  0.55  0.04  0.00
  YS02001748YS02001751    1.00   0.18  0.00  0.00  0.65  0.17  0.00  0.00  0.57  0.00
  YS02001751YS02001754    1.00   0.18  0.00  0.00  0.42  0.02  0.00  0.38  0.04  0.00
  YS02001754YS02001757    1.00   0.00  0.18  0.00  0.82  0.01  0.00  0.00  0.56  0.00
  YS02001757CaochengTiaoxuchi    1.00   0.00  0.00  0.00  0.85  0.15  0.00  0.00  0.63  0.00
  YS02001759YS02001757    1.00   0.00  0.17  0.00  0.82  0.01  0.00  0.00  0.50  0.00
  YS02001762YS02001759    1.00   0.17  0.00  0.00  0.82  0.00  0.00  0.00  0.00  0.00
  YS02001765YS02001762    1.00   0.18  0.00  0.00  0.82  0.00  0.00  0.00  0.51  0.00
  YS02001767YS02001765    1.00   0.18  0.00  0.00  0.82  0.00  0.00  0.00  0.00  0.00
  YS02001770YS02001767    1.00   0.17  0.00  0.00  0.83  0.00  0.00  0.00  0.00  0.00
  YS02001774YS02001770    1.00   0.18  0.00  0.00  0.68  0.00  0.14  0.00  0.01  0.00
  YS02001779YS02001774    1.00   0.18  0.22  0.00  0.60  0.00  0.00  0.00  0.53  0.00
  YS02001783YS02001784    1.00   0.20  0.00  0.00  0.79  0.01  0.00  0.00  0.57  0.00
  YS02001784YS02001785    1.00   0.20  0.00  0.00  0.79  0.00  0.00  0.00  0.42  0.00
  YS02001786YS02001788    1.00   0.21  0.00  0.00  0.48  0.31  0.00  0.00  0.00  0.00
  YS02001788YS02001790    1.00   0.22  0.00  0.00  0.19  0.59  0.00  0.00  0.62  0.00
  YS02001790YS02001791    1.00   0.22  0.00  0.00  0.01  0.77  0.00  0.00  0.15  0.00
  YS02001791YS02001793    1.00   0.22  0.00  0.00  0.00  0.77  0.00  0.00  0.01  0.00
  YS02001793JiankangQianchi    1.00   0.00  0.23  0.00  0.70  0.07  0.00  0.00  0.79  0.00
  YS02001882YS02001884    1.00   0.19  0.00  0.00  0.81  0.00  0.00  0.00  0.00  0.00
  YS02001884YS02001887    1.00   0.18  0.00  0.00  0.82  0.00  0.00  0.00  0.00  0.00
  YS02001887YS02001890    1.00   0.17  0.00  0.00  0.82  0.00  0.01  0.00  0.00  0.00
  YS02001890YS02001895    1.00   0.18  0.01  0.00  0.81  0.00  0.00  0.00  0.00  0.00
  YS02001895YS02001898    1.00   0.19  0.00  0.00  0.78  0.00  0.02  0.00  0.00  0.00
  YS02001898YS02001901    1.00   0.19  0.00  0.00  0.81  0.00  0.00  0.00  0.01  0.00
  YS02001901YS02001904    1.00   0.19  0.00  0.00  0.81  0.00  0.00  0.00  0.00  0.00
  YS02001904YS02001907    1.00   0.18  0.02  0.00  0.81  0.00  0.00  0.00  0.00  0.00
  YS02001907YS02006553    1.00   0.18  0.01  0.00  0.82  0.00  0.00  0.00  0.00  0.00
  YS02001910YS02001907    1.00   0.18  0.00  0.00  0.81  0.00  0.00  0.01  0.02  0.00
  YS02001915YS02001910    1.00   0.17  0.00  0.00  0.81  0.02  0.00  0.00  0.01  0.00
  YS02001918YS02001915    1.00   0.17  0.02  0.00  0.81  0.00  0.00  0.00  0.70  0.00
  YS02001920YS02001918    1.00   0.18  0.01  0.00  0.81  0.00  0.00  0.00  0.00  0.00
  YS02001923YS02001920    1.00   0.18  0.00  0.00  0.82  0.00  0.00  0.00  0.76  0.00
  YS02001926YS02001923    1.00   0.18  0.01  0.00  0.11  0.00  0.70  0.00  0.00  0.00
  YS02001929YS02001926    1.00   0.18  0.00  0.00  0.82  0.00  0.00  0.00  0.80  0.00
  YS02006553YS02006556    1.00   0.18  0.00  0.00  0.82  0.00  0.00  0.00  0.01  0.00
  YS02006556YS02006558    1.00   0.17  0.00  0.00  0.82  0.00  0.00  0.00  0.00  0.00
  YS02006558YS02006561    1.00   0.20  0.00  0.00  0.11  0.69  0.00  0.00  0.15  0.00
  YS02006561YS02001783    1.00   0.20  0.00  0.00  0.27  0.53  0.00  0.00  0.67  0.00
  YS02163301YS02001633    1.00   0.17  0.01  0.00  0.82  0.00  0.00  0.00  0.00  0.00
  YS02163601YS02164001    1.00   0.18  0.00  0.00  0.82  0.00  0.00  0.00  0.00  0.00
  YS02164001YS02001641    1.00   0.18  0.00  0.00  0.82  0.00  0.00  0.00  0.00  0.00
  
  
  *************************
  Conduit Surcharge Summary
  *************************
  
  ----------------------------------------------------------------------------
                                                           Hours        Hours 
                         --------- Hours Full --------   Above Full   Capacity
  Conduit                Both Ends  Upstream  Dnstream   Normal Flow   Limited
  ----------------------------------------------------------------------------
  WS02003072WS02003073        0.01      0.01      0.01      1.41         0.01
  WS02004401WS02004402        0.01      0.01      0.01      0.01         0.01
  WS02004402WS02004403        0.01      0.01      0.01      0.02         0.01
  WS02004403WS02004404        0.01      0.01      0.01      0.01         0.01
  WS02004404WS02004405        0.01      0.01      0.01      3.51         0.01
  WS02004405WS02004406        0.01      0.01      0.01      0.56         0.01
  WS02006109WS02006110        0.70      0.70      2.37      0.84         0.01
  WS02006110WS02006113        0.01      0.01      2.34      0.01         0.01
  WS02006111WS02006112        0.01      0.01      2.65      0.01         0.01
  WS02006112WS02006115        0.01      0.01      0.90      0.01         0.01
  WS02006113WS02006111        0.01      0.01      0.01      0.01         0.01
  WS02006115WS02006116        0.01      0.01      0.01      0.01         0.01
  WS02006116WS02004401        0.01      0.01      0.01      0.02         0.01
  WS02006228WS02006109        2.32      2.36      2.33      2.81         2.32
  WS02006229WS02006228        2.32      2.33      2.32      2.60         2.30
  WS02006230WS02006229        2.43      2.54      2.44      3.77         2.43
  WS02006231WS02006230        0.72      0.72      0.93      3.48         0.01
  WS02006232WS02006231        0.87      0.87      2.36      0.95         0.01
  WS02006234WS02006232        2.27      2.27      2.36      0.93         0.92
  WS02006235WS02006234        1.34      1.35      2.28      3.36         0.02
  WS02006238WS02006235        2.30      2.30      2.36      0.01         0.01
  WS02006239WS02006238        2.32      2.33      2.32      2.38         2.09
  WS02006240WS02006239        2.30      2.31      2.30      2.39         1.96
  WS02006242WS02006240        2.31      2.31      2.36      2.59         0.01
  WS02006243WS02006242        2.30      2.30      2.33      0.01         0.05
  WS02006245WS02006243        2.28      2.28      2.30      1.66         1.63
  WS02006247WS02006245        2.28      2.28      2.28      3.22         2.26
  WS02006248WS02006247        2.26      2.27      2.28      0.01         0.05
  WS02006249WS02006248        2.26      2.26      2.26      3.19         0.01
  WS02006251WS02006249        2.26      2.26      2.26      2.49         2.17
  WS02006252WS02006251        2.57      2.57      2.60      2.57         0.01
  WS02006256WS02006235        3.36      3.40      6.39      1.14         0.01
  YS02001580YS02001583        1.43      1.44      1.49      0.01         0.01
  YS02001583YS02001586        1.44      1.44      1.56      0.01         0.01
  YS02001586YS02001590        1.57      1.57      1.64      0.01         0.01
  YS02001590YS02001593        1.64      1.64      1.66      1.62         0.01
  YS02001593YS02001596        1.65      1.65      1.76      0.01         0.01
  YS02001596YS02001600        1.81      1.81      1.89      0.01         0.01
  YS02001600YS02001601        1.93      1.93      2.13      0.01         0.01
  YS02001601YS02001602        2.06      2.06      2.15      1.87         0.01
  YS02001602YS02001605        2.03      2.03      2.06      2.63         0.01
  YS02001605YS02001607        2.01      2.03      2.02      2.02         1.93
  YS02001607YS02001610        1.64      1.64      1.67      0.01         0.01
  YS02001610YS02001613        1.64      1.64      1.67      0.01         0.01
  YS02001613YS02001616        1.59      1.59      1.64      0.01         0.01
  YS02001616YS02001619        1.58      1.58      1.59      0.46         0.34
  YS02001619YS02001622        1.58      1.58      1.59      1.58         1.47
  YS02001622YS02001625        1.59      1.59      1.77      0.01         0.01
  YS02001625YS02001629        1.51      1.51      1.77      0.01         0.01
  YS02001629YS02163301        1.78      1.78      1.80      0.49         0.21
  YS02001633YS02163601        1.83      1.83      1.88      0.31         0.31
  YS02001641YS02001644        1.75      1.78      1.75      2.18         1.71
  YS02001644YS02001647        1.47      1.47      1.75      0.01         0.01
  YS02001647YS02001649        1.47      1.47      1.59      0.01         0.01
  YS02001649YS02001757        1.58      1.59      1.66      0.32         0.18
  YS02001652YS02001649        1.44      1.44      1.59      0.16         0.16
  YS02001655YS02001652        1.27      1.27      1.40      0.16         0.15
  YS02001658YS02001655        0.94      0.94      1.27      0.12         0.12
  YS02001661YS02001658        0.42      0.42      0.94      0.10         0.11
  YS02001664YS02001661        0.24      0.24      0.53      0.01         0.01
  YS02001745YS02001748        0.22      0.22      0.77      0.01         0.01
  YS02001748YS02001751        0.91      0.91      1.19      0.04         0.04
  YS02001751YS02001754        1.19      1.19      1.34      0.03         0.03
  YS02001754YS02001757        1.38      1.38      1.66      0.01         0.01
  YS02001757CaochengTiaoxuchi        1.61      1.66      2.20      0.86         0.71
  YS02001759YS02001757        1.57      1.57      1.66      0.13         0.14
  YS02001762YS02001759        1.54      1.54      1.57      0.01         0.01
  YS02001765YS02001762        1.50      1.50      1.54      0.01         0.01
  YS02001767YS02001765        1.48      1.48      1.50      0.01         0.01
  YS02001770YS02001767        1.47      1.48      1.48      1.22         0.80
  YS02001774YS02001770        1.45      1.45      1.53      0.01         0.01
  YS02001779YS02001774        1.33      1.33      1.53      0.01         0.01
  YS02001783YS02001784        0.66      0.69      0.66      0.85         0.66
  YS02001784YS02001785        0.55      0.66      0.55      1.13         0.55
  YS02001786YS02001788        0.01      0.55      0.01      0.97         0.01
  YS02001790YS02001791        0.01      0.01      0.01      0.65         0.01
  YS02001793JiankangQianchi        0.01      0.01      5.24      0.01         0.01
  YS02001882YS02001884        0.63      0.63      0.64      0.01         0.01
  YS02001884YS02001887        0.67      0.67      0.68      0.01         0.01
  YS02001887YS02001890        0.70      0.70      0.71      0.22         0.01
  YS02001890YS02001895        0.62      0.62      0.73      0.01         0.01
  YS02001895YS02001898        0.61      0.61      0.62      0.01         0.01
  YS02001898YS02001901        0.62      0.62      0.67      0.01         0.01
  YS02001901YS02001904        0.65      0.65      0.67      0.01         0.01
  YS02001904YS02001907        0.65      0.65      0.95      0.01         0.01
  YS02001907YS02006553        1.16      1.16      1.23      0.01         0.01
  YS02001910YS02001907        0.72      0.72      0.93      0.08         0.09
  YS02001915YS02001910        0.63      0.63      0.72      0.01         0.01
  YS02001918YS02001915        0.53      0.53      0.63      0.01         0.01
  YS02001920YS02001918        0.53      0.53      0.55      0.01         0.01
  YS02001923YS02001920        0.48      0.48      0.55      0.01         0.01
  YS02001926YS02001923        0.21      0.21      0.23      0.01         0.01
  YS02001929YS02001926        0.11      0.11      0.23      0.01         0.01
  YS02006553YS02006556        0.82      0.82      0.95      0.01         0.01
  YS02006556YS02006558        0.88      0.88      0.97      0.01         0.01
  YS02006558YS02006561        0.57      0.81      0.57      1.08         0.57
  YS02006561YS02001783        0.50      0.50      0.69      0.01         0.01
  YS02163301YS02001633        1.80      1.80      1.85      0.21         0.01
  YS02163601YS02164001        1.78      1.78      1.88      0.23         0.01
  YS02164001YS02001641        1.77      1.78      1.78      0.96         0.85
  
  
  ***************
  Pumping Summary
  ***************
  
  ---------------------------------------------------------------------------------------------------------
                                                  Min       Avg       Max     Total     Power    % Time Off
                        Percent   Number of      Flow      Flow      Flow    Volume     Usage    Pump Curve
  Pump                 Utilized   Start-Ups       LPS       LPS       LPS  10^6 ltr     Kw-hr    Low   High
  ---------------------------------------------------------------------------------------------------------
  CC-R1                   34.83          20      0.00    683.00    683.00     6.852    129.84    0.0   51.8
  CC-R2                   32.12          21      0.00    683.00    683.00     6.318    120.49    0.0   50.9
  CC-S1                   37.85          18      0.00    200.00    200.00     2.180     11.24    0.0   22.9
  CC-S2                   35.45          17      0.00    200.00    200.00     2.042     10.42    0.0   24.4
  JK-R1                    6.63          17      0.00   1000.00   1000.00     1.908     18.55    0.0    0.0
  JK-R2                    5.61          12      0.00   1000.00   1000.00     1.615     15.33    0.0    0.0
  JK-S                    14.07          28      0.00    300.00    300.00     1.216     19.65    0.0    0.0
  

  Analysis begun on:  Thu Sep  7 21:55:25 2023
  Analysis ended on:  Thu Sep  7 21:55:36 2023
  Total elapsed time: 00:00:11