
  OWA STORM WATER MANAGEMENT MODEL - VERSION v5.1.14 (OWA 2022-07-31)
  --------------------------------------------------------------

  WARNING 04: minimum elevation drop used for Conduit WS02004404WS02004405
  WARNING 03: negative offset ignored for Link YS02001904YS02001907
  
  *********************************************************
  NOTE: The summary statistics displayed in this report are
  based on results found at every computational time step,  
  not just on results from each reporting time step.
  *********************************************************
  
  ****************
  Analysis Options
  ****************
  Flow Units ............... LPS
  Process Models:
    Rainfall/Runoff ........ YES
    RDII ................... NO
    Snowmelt ............... NO
    Groundwater ............ NO
    Flow Routing ........... YES
    Ponding Allowed ........ NO
    Water Quality .......... NO
  Infiltration Method ...... HORTON
  Flow Routing Method ...... DYNWAVE
  Surcharge Method ......... EXTRAN
  Starting Date ............ 08/28/2015 08:00:00
  Ending Date .............. 08/28/2015 16:00:00
  Antecedent Dry Days ...... 8.0
  Report Time Step ......... 00:01:00
  Wet Time Step ............ 00:01:00
  Dry Time Step ............ 00:01:00
  Routing Time Step ........ 30.00 sec
  Variable Time Step ....... YES
  Maximum Trials ........... 8
  Number of Threads ........ 1
  Head Tolerance ........... 0.001500 m
  
  
  **************************        Volume         Depth
  Runoff Quantity Continuity     hectare-m            mm
  **************************     ---------       -------
  Initial LID Storage ......         0.049         1.488
  Total Precipitation ......         3.316        99.971
  Evaporation Loss .........         0.000         0.000
  Infiltration Loss ........         0.078         2.347
  Surface Runoff ...........         2.551        76.894
  Final Storage ............         0.738        22.246
  Continuity Error (%) .....        -0.028
  
  
  **************************        Volume        Volume
  Flow Routing Continuity        hectare-m      10^6 ltr
  **************************     ---------     ---------
  Dry Weather Inflow .......         0.000         0.000
  Wet Weather Inflow .......         2.551        25.510
  Groundwater Inflow .......         0.000         0.000
  RDII Inflow ..............         0.000         0.000
  External Inflow ..........         0.083         0.834
  External Outflow .........         1.762        17.619
  Flooding Loss ............         0.974         9.741
  Evaporation Loss .........         0.000         0.000
  Exfiltration Loss ........         0.000         0.000
  Initial Stored Volume ....         0.243         2.431
  Final Stored Volume ......         0.177         1.774
  Continuity Error (%) .....        -1.251
  
  
  *************************
  Highest Continuity Errors
  *************************
  Node YS02001583 (-12.92%)
  Node YS02001884 (3.44%)
  Node WS02006256 (-1.58%)
  Node WS02006110 (-1.39%)
  Node WS02006111 (-1.07%)
  
  
  ***************************
  Time-Step Critical Elements
  ***************************
  Link WS02006252WS02006251 (31.28%)
  Link WS02004404WS02004405 (18.55%)
  Link WS02006238WS02006235 (18.27%)
  Link YS02001791YS02001793 (13.62%)
  Link WS02003066WSF200 (5.40%)
  
  
  ********************************
  Highest Flow Instability Indexes
  ********************************
  Link WS02006113WS02006111 (29)
  Link WS02006238WS02006235 (24)
  Link WS02006252WS02006251 (23)
  Link WS02006256WS02006235 (20)
  Link WS02004404WS02004405 (19)
  
  
  *************************
  Routing Time Step Summary
  *************************
  Minimum Time Step           :     0.01 sec
  Average Time Step           :     2.53 sec
  Maximum Time Step           :    30.00 sec
  Percent in Steady State     :    -0.00
  Average Iterations per Step :     3.61
  Percent Not Converging      :    16.32
  
  
  ***************************
  Subcatchment Runoff Summary
  ***************************
  
  ------------------------------------------------------------------------------------------------------------------------------
                            Total      Total      Total      Total     Imperv       Perv      Total       Total     Peak  Runoff
                           Precip      Runon       Evap      Infil     Runoff     Runoff     Runoff      Runoff   Runoff   Coeff
  Subcatchment                 mm         mm         mm         mm         mm         mm         mm    10^6 ltr      LPS
  ------------------------------------------------------------------------------------------------------------------------------
  sub60                     81.29       0.00       0.00       1.40      54.29       6.13      60.42        0.79   541.27   0.743
  sub61                     81.29       0.00       0.00       2.15      54.24       9.15      63.39        1.16   784.59   0.780
  sub62                     81.29       0.00       0.00       0.95      57.83       4.16      61.99        1.70  1075.76   0.763
  sub63                     81.29       0.00       0.00       3.91      46.46      15.39      61.85        1.40   871.53   0.761
  sub64                     81.29       0.00       0.00       1.88      52.91       7.62      60.52        1.45   866.68   0.745
  sub65                     81.29       0.00       0.00       1.73      57.11       6.96      64.06        1.76  1011.09   0.788
  sub66                     81.29       0.00       0.00       4.52      44.94      14.17      59.11        2.76  1287.93   0.727
  sub67                    153.32       0.00       0.00       0.98     112.70       8.91     126.85        2.36  1937.64   0.827
  sub68                    153.32       0.00       0.00       1.73      99.55      14.62     120.60        3.32  2764.64   0.787
  sub69                     81.29       0.00       0.00       1.50      54.68       8.16      62.84        2.33  1313.17   0.773
  sub70                     81.29       0.00       0.00       4.98      43.82      17.64      61.46        1.78   742.66   0.756
  sub71                    153.32       0.00       0.00       0.92      99.91       7.85     115.46        3.02  2531.60   0.753
  sub72                    153.32       0.00       0.00       0.88     107.97       7.32     121.65        1.67  1278.95   0.793
  

  ***********************
  LID Performance Summary
  ***********************

  --------------------------------------------------------------------------------------------------------------------
                                         Total      Evap     Infil   Surface    Drain    Initial     Final  Continuity
                                        Inflow      Loss      Loss   Outflow   Outflow   Storage   Storage       Error
  Subcatchment      LID Control             mm        mm        mm        mm        mm        mm        mm           %
  --------------------------------------------------------------------------------------------------------------------
  sub60             GreenRoof            81.29      0.00      0.00      0.00      0.00      7.05     88.39       -0.05
  sub61             GreenRoof            81.29      0.00      0.00      0.00      0.00      7.05     88.39       -0.05
  sub62             GreenRoof            81.29      0.00      0.00      0.00      0.00      7.05     88.39       -0.05
  sub63             GreenRoof            81.29      0.00      0.00      0.00      0.00      7.05     88.39       -0.05
  sub64             GreenRoof            81.29      0.00      0.00      0.00      0.00      7.05     88.39       -0.05
  sub65             GreenRoof            81.29      0.00      0.00      0.00      0.00      7.05     88.39       -0.05
  sub66             GreenRoof            81.29      0.00      0.00      0.00      0.00      7.05     88.39       -0.05
  sub67             GreenRoof           153.32      0.00      0.00     27.00      0.00      7.05    133.37       -0.00
  sub68             GreenRoof           153.32      0.00      0.00     27.00      0.00      7.05    133.37       -0.00
  sub69             GreenRoof            81.29      0.00      0.00      0.00      0.00      7.05     88.39       -0.05
  sub70             GreenRoof            81.29      0.00      0.00      0.00      0.00      7.05     88.39       -0.05
  sub71             GreenRoof           153.32      0.00      0.00     27.00      0.00      7.05    133.37       -0.00
  sub72             GreenRoof           153.32      0.00      0.00     27.00      0.00      7.05    133.37       -0.00
  
  ******************
  Node Depth Summary
  ******************
  
  ---------------------------------------------------------------------------------
                                 Average  Maximum  Maximum  Time of Max    Reported
                                   Depth    Depth      HGL   Occurrence   Max Depth
  Node                 Type       Meters   Meters   Meters  days hr:min      Meters
  ---------------------------------------------------------------------------------
  WS02003060           JUNCTION     0.20     0.38     5.32     0  02:16        0.38
  WS02003066           JUNCTION     0.18     0.30     5.85     0  02:15        0.30
  WS02003067           JUNCTION     0.47     0.70     6.02     0  02:15        0.70
  WS02003069           JUNCTION     0.23     0.43     5.02     0  02:16        0.43
  WS02003072           JUNCTION     0.29     0.50     4.87     0  02:17        0.50
  WS02003073           JUNCTION     0.16     0.30     4.36     0  02:18        0.30
  WS02004401           JUNCTION     0.56     0.88     6.88     0  02:13        0.88
  WS02004402           JUNCTION     0.59     0.90     6.86     0  02:39        0.90
  WS02004403           JUNCTION     0.62     0.92     6.85     0  02:39        0.92
  WS02004404           JUNCTION     0.70     1.05     6.90     0  02:12        1.02
  WS02004405           JUNCTION     0.69     0.97     6.82     0  02:15        0.97
  WS02004406           JUNCTION     0.70     0.96     6.79     0  02:16        0.96
  WS02004407           JUNCTION     0.15     0.30     6.61     0  02:13        0.30
  WS02004409           JUNCTION     0.34     0.67     6.44     0  02:13        0.67
  WS02004410           JUNCTION     0.37     0.68     6.40     0  02:14        0.68
  WS02004411           JUNCTION     0.39     0.69     6.37     0  02:14        0.69
  WS02004412           JUNCTION     0.42     0.70     6.34     0  02:14        0.70
  WS02004413           JUNCTION     0.59     0.86     6.33     0  02:15        0.86
  WS02006109           JUNCTION     0.60     1.39     8.01     0  02:23        0.98
  WS02006110           JUNCTION     0.61     1.45     8.04     0  00:00        0.93
  WS02006111           JUNCTION     0.15     1.67     8.37     0  00:00        0.56
  WS02006112           JUNCTION     0.71     2.68     8.56     0  00:00        1.29
  WS02006113           JUNCTION     0.23     1.50     8.40     0  00:00        0.46
  WS02006115           JUNCTION     0.44     1.69     7.83     0  00:00        0.86
  WS02006116           JUNCTION     0.53     1.11     7.15     0  00:00        0.85
  WS02006228           JUNCTION     0.59     1.64     8.29     0  00:00        1.05
  WS02006229           JUNCTION     0.56     1.66     8.36     0  02:23        1.07
  WS02006230           JUNCTION     0.56     2.06     8.81     0  02:23        1.26
  WS02006231           JUNCTION     0.38     1.61     8.73     0  02:23        1.04
  WS02006232           JUNCTION     0.50     1.57     8.61     0  02:23        1.22
  WS02006234           JUNCTION     0.43     1.56     8.72     0  02:00        1.27
  WS02006235           JUNCTION     0.47     1.72     8.88     0  02:00        1.37
  WS02006238           JUNCTION     0.50     1.77     8.92     0  02:00        1.41
  WS02006239           JUNCTION     0.46     1.71     8.91     0  02:00        1.39
  WS02006240           JUNCTION     0.43     1.59     8.88     0  02:00        1.33
  WS02006242           JUNCTION     0.50     1.55     8.82     0  01:46        1.38
  WS02006243           JUNCTION     0.42     1.39     8.81     0  02:00        1.23
  WS02006245           JUNCTION     0.42     1.30     8.78     0  02:00        1.18
  WS02006247           JUNCTION     0.44     1.25     8.75     0  02:00        1.20
  WS02006248           JUNCTION     0.41     1.10     8.69     0  02:00        1.10
  WS02006249           JUNCTION     0.44     1.09     8.69     0  01:48        1.09
  WS02006251           JUNCTION     0.44     1.79     9.46     0  02:23        1.25
  WS02006252           JUNCTION     0.32     1.50     9.74     0  00:25        1.50
  WS02006256           JUNCTION     0.97     2.35     9.28     0  00:10        2.35
  WSF200               JUNCTION     0.14     0.29     5.52     0  02:15        0.29
  YS02001580           JUNCTION     0.14     1.05     9.59     0  01:34        0.77
  YS02001583           JUNCTION     0.17     1.14     9.64     0  01:34        0.82
  YS02001586           JUNCTION     0.26     1.13     9.30     0  01:33        1.13
  YS02001590           JUNCTION     0.37     1.40     9.26     0  01:32        1.37
  YS02001593           JUNCTION     0.30     1.37     9.24     0  01:33        1.34
  YS02001596           JUNCTION     0.41     1.73     9.15     0  01:33        1.71
  YS02001600           JUNCTION     0.50     1.87     9.00     0  01:32        1.87
  YS02001601           JUNCTION     0.67     2.06     8.90     0  01:32        2.06
  YS02001602           JUNCTION     0.58     1.87     8.77     0  01:34        1.87
  YS02001605           JUNCTION     0.54     1.78     8.68     0  01:34        1.77
  YS02001607           JUNCTION     0.51     1.68     8.53     0  01:34        1.65
  YS02001610           JUNCTION     0.55     1.68     8.48     0  01:34        1.68
  YS02001613           JUNCTION     0.51     1.70     8.54     0  01:38        1.70
  YS02001616           JUNCTION     0.45     1.61     8.52     0  01:34        1.60
  YS02001619           JUNCTION     0.43     1.61     8.54     0  01:34        1.61
  YS02001622           JUNCTION     0.42     1.62     8.52     0  01:34        1.61
  YS02001625           JUNCTION     0.64     1.78     8.38     0  01:34        1.78
  YS02001629           JUNCTION     0.55     1.85     8.40     0  01:34        1.85
  YS02001633           JUNCTION     0.62     2.08     8.53     0  01:36        2.08
  YS02001641           JUNCTION     0.59     2.07     8.50     0  01:36        2.07
  YS02001644           JUNCTION     0.58     1.92     8.35     0  01:36        1.92
  YS02001647           JUNCTION     0.39     1.81     8.42     0  01:37        1.71
  YS02001649           JUNCTION     0.44     2.05     8.44     0  01:36        1.89
  YS02001652           JUNCTION     0.33     2.16     8.76     0  01:35        1.71
  YS02001655           JUNCTION     0.25     2.20     9.05     0  01:36        1.71
  YS02001658           JUNCTION     0.19     2.30     9.44     0  01:36        1.41
  YS02001661           JUNCTION     0.19     2.46     9.86     0  01:37        1.39
  YS02001664           JUNCTION     0.08     0.98     8.90     0  01:37        0.96
  YS02001745           JUNCTION     0.09     2.35     9.87     0  01:37        0.72
  YS02001748           JUNCTION     0.17     2.27     9.35     0  01:37        1.15
  YS02001751           JUNCTION     0.21     2.20     9.08     0  01:37        1.40
  YS02001754           JUNCTION     0.28     2.20     8.81     0  01:36        1.62
  YS02001757           JUNCTION     0.45     2.21     8.47     0  01:37        2.01
  YS02001759           JUNCTION     0.39     2.21     8.57     0  01:37        2.21
  YS02001762           JUNCTION     0.38     2.15     8.55     0  01:36        2.13
  YS02001765           JUNCTION     0.36     2.10     8.55     0  01:36        1.98
  YS02001767           JUNCTION     0.36     2.03     8.52     0  01:36        1.98
  YS02001770           JUNCTION     0.37     1.95     8.44     0  01:36        1.95
  YS02001774           JUNCTION     0.43     2.01     8.43     0  01:36        2.00
  YS02001779           JUNCTION     0.28     1.68     8.37     0  01:36        1.68
  YS02001783           JUNCTION     0.35     1.40     7.54     0  02:23        1.37
  YS02001784           JUNCTION     0.34     1.24     7.31     0  02:25        1.24
  YS02001786           JUNCTION     0.28     0.95     6.98     0  02:23        0.93
  YS02001788           JUNCTION     0.20     0.65     6.62     0  02:24        0.64
  YS02001790           JUNCTION     0.24     0.73     6.37     0  02:21        0.72
  YS02001791           JUNCTION     0.15     0.44     5.91     0  02:18        0.43
  YS02001793           JUNCTION     0.08     0.30     5.13     0  02:37        0.28
  YS02001882           JUNCTION     0.43     1.83     8.55     0  02:23        1.81
  YS02001884           JUNCTION     0.51     1.93     8.55     0  02:23        1.92
  YS02001887           JUNCTION     0.57     2.00     8.54     0  02:23        2.00
  YS02001890           JUNCTION     0.59     1.81     8.32     0  02:09        1.81
  YS02001895           JUNCTION     0.40     1.57     8.32     0  02:10        1.57
  YS02001898           JUNCTION     0.40     1.57     8.31     0  02:11        1.57
  YS02001901           JUNCTION     0.50     1.71     8.32     0  02:11        1.71
  YS02001904           JUNCTION     0.48     1.66     8.29     0  02:11        1.66
  YS02001907           JUNCTION     0.75     1.96     8.25     0  02:03        1.96
  YS02001910           JUNCTION     0.60     2.04     8.55     0  02:25        2.04
  YS02001915           JUNCTION     0.44     2.00     8.72     0  02:21        2.00
  YS02001918           JUNCTION     0.28     1.81     8.88     0  02:23        1.81
  YS02001920           JUNCTION     0.34     2.00     9.01     0  02:23        1.97
  YS02001923           JUNCTION     0.23     1.86     9.12     0  02:23        1.81
  YS02001926           JUNCTION     0.25     1.77     9.22     0  02:23        1.77
  YS02001929           JUNCTION     0.17     1.73     9.43     0  02:25        1.73
  YS02006553           JUNCTION     0.75     2.07     8.36     0  02:23        2.06
  YS02006556           JUNCTION     0.73     2.19     8.50     0  02:23        2.17
  YS02006558           JUNCTION     0.76     2.32     8.59     0  02:23        2.32
  YS02006561           JUNCTION     0.22     1.11     7.77     0  02:23        1.07
  YS02163301           JUNCTION     0.57     1.96     8.48     0  01:36        1.96
  YS02163601           JUNCTION     0.64     2.08     8.48     0  01:36        2.08
  YS02164001           JUNCTION     0.58     2.10     8.56     0  01:36        2.10
  CC-1                 OUTFALL      0.00     0.00     0.00     0  00:00        0.00
  CC-2                 OUTFALL      0.00     0.00     0.00     0  00:00        0.00
  JK-1                 OUTFALL      0.00     0.00     0.00     0  00:00        0.00
  JK-2                 OUTFALL      0.00     0.00     0.00     0  00:00        0.00
  WSC                  OUTFALL      0.16     0.30     0.97     0  02:18        0.30
  CC-storage           STORAGE      0.80     1.57     7.07     0  02:12        1.57
  JK-storage           STORAGE      1.79     4.24     5.04     0  02:37        4.20
  
  
  *******************
  Node Inflow Summary
  *******************
  
  -------------------------------------------------------------------------------------------------
                                  Maximum  Maximum                  Lateral       Total        Flow
                                  Lateral    Total  Time of Max      Inflow      Inflow     Balance
                                   Inflow   Inflow   Occurrence      Volume      Volume       Error
  Node                 Type           LPS      LPS  days hr:min    10^6 ltr    10^6 ltr     Percent
  -------------------------------------------------------------------------------------------------
  WS02003060           JUNCTION     16.53   555.44     0  02:15       0.476        4.47       0.045
  WS02003066           JUNCTION      0.00   538.75     0  02:15           0           4       0.032
  WS02003067           JUNCTION      0.00   538.73     0  02:15           0           4       0.099
  WS02003069           JUNCTION      0.32   555.62     0  02:16     0.00922        4.48       0.076
  WS02003072           JUNCTION      0.00   555.56     0  02:16           0        4.47       0.139
  WS02003073           JUNCTION      1.82   557.37     0  02:17      0.0524        4.52       0.109
  WS02004401           JUNCTION      0.00  1786.04     0  00:00           0         4.1       0.258
  WS02004402           JUNCTION      0.00  1248.69     0  00:01           0        4.09       0.260
  WS02004403           JUNCTION      0.00   929.44     0  00:01           0        4.08       0.257
  WS02004404           JUNCTION      0.00   877.02     0  00:01           0        4.07       0.136
  WS02004405           JUNCTION      0.00   827.31     0  00:01           0        4.06       0.248
  WS02004406           JUNCTION      0.00   768.45     0  00:02           0        4.05       0.519
  WS02004407           JUNCTION      0.00   540.56     0  02:13           0        4.03       0.020
  WS02004409           JUNCTION      0.00   540.09     0  02:13           0        4.03       0.056
  WS02004410           JUNCTION      0.00   539.50     0  02:14           0        4.03       0.099
  WS02004411           JUNCTION      0.00   539.24     0  02:14           0        4.02       0.128
  WS02004412           JUNCTION      0.00   538.90     0  02:14           0        4.02       0.172
  WS02004413           JUNCTION      0.00   538.92     0  02:15           0        4.01       0.322
  WS02006109           JUNCTION      0.00  1446.81     0  00:00           0        3.99      -0.212
  WS02006110           JUNCTION      0.00   561.73     0  02:24           0        3.97      -1.367
  WS02006111           JUNCTION      0.00  1180.41     0  00:00           0        4.03      -1.056
  WS02006112           JUNCTION      0.00  2307.30     0  00:00           0        4.07      -0.001
  WS02006113           JUNCTION      0.00   568.35     0  02:24           0        3.99      -0.954
  WS02006115           JUNCTION      0.00   953.54     0  00:00           0        4.04      -0.889
  WS02006116           JUNCTION      0.00  1264.47     0  00:00           0        4.08      -0.578
  WS02006228           JUNCTION      0.00   869.18     0  00:00           0        3.98      -0.049
  WS02006229           JUNCTION      0.00   561.05     0  02:24           0        3.96      -0.048
  WS02006230           JUNCTION     10.28   706.67     0  00:00       0.296        3.95       0.036
  WS02006231           JUNCTION      0.00   580.86     0  02:16           0        3.65       0.017
  WS02006232           JUNCTION      0.00   580.24     0  02:16           0        3.64       0.143
  WS02006234           JUNCTION      0.00   575.93     0  02:16           0        3.63      -0.220
  WS02006235           JUNCTION      0.00   569.95     0  02:16           0         3.7       0.232
  WS02006238           JUNCTION      0.00   425.50     0  02:20           0        2.72      -0.225
  WS02006239           JUNCTION      0.00   425.61     0  02:20           0        2.66      -0.251
  WS02006240           JUNCTION      0.00   423.34     0  02:20           0        2.64      -0.002
  WS02006242           JUNCTION      0.00   423.51     0  02:20           0        2.63       0.048
  WS02006243           JUNCTION      0.00   422.60     0  02:20           0        2.61      -0.434
  WS02006245           JUNCTION      0.00   422.93     0  02:20           0        2.63       0.525
  WS02006247           JUNCTION      0.00   423.70     0  02:20           0        2.63       0.009
  WS02006248           JUNCTION      0.00   423.36     0  02:20           0        2.62      -0.116
  WS02006249           JUNCTION      0.00   502.60     0  03:25           0        2.92       0.793
  WS02006251           JUNCTION      0.00   411.45     0  02:51           0        2.92      -0.005
  WS02006252           JUNCTION      0.00   400.00     0  00:25           0        2.91      -0.440
  WS02006256           JUNCTION      0.00   300.00     0  00:10           0        1.47      -1.557
  WSF200               JUNCTION      0.00   538.78     0  02:15           0        3.99       0.008
  YS02001580           JUNCTION      0.00   181.95     0  01:34           0     0.00474       1.924
  YS02001583           JUNCTION      0.00   269.08     0  01:34           0      0.0149     -11.439
  YS02001586           JUNCTION    742.66   742.66     0  01:42        1.78        1.79       0.092
  YS02001590           JUNCTION      0.00   318.31     0  01:57           0        1.36      -0.037
  YS02001593           JUNCTION      0.00   318.25     0  01:57           0        1.36       0.008
  YS02001596           JUNCTION      0.00   318.16     0  02:04           0        1.36       0.000
  YS02001600           JUNCTION      0.00   318.45     0  01:57           0        1.36       0.007
  YS02001601           JUNCTION   1313.17  1630.66     0  01:40        2.33        3.69       0.004
  YS02001602           JUNCTION      0.00   579.24     0  01:34           0        2.28       0.015
  YS02001605           JUNCTION      0.00   579.22     0  01:34           0        2.16       0.014
  YS02001607           JUNCTION      0.00   579.15     0  01:34           0        2.16       0.076
  YS02001610           JUNCTION      0.00   701.77     0  01:41           0        2.38       0.077
  YS02001613           JUNCTION      0.00   548.36     0  01:34           0         1.9       0.083
  YS02001616           JUNCTION      0.00   536.43     0  01:34           0         1.9       0.010
  YS02001619           JUNCTION   1287.93  1287.93     0  01:41        2.76        4.43      -0.009
  YS02001622           JUNCTION      0.00   960.04     0  01:34           0        4.19      -0.005
  YS02001625           JUNCTION      0.00  1303.45     0  01:42           0        4.35       0.197
  YS02001629           JUNCTION      0.00   950.98     0  01:34           0        3.47       0.015
  YS02001633           JUNCTION   1011.09  1432.34     0  01:35        1.76           5       0.062
  YS02001641           JUNCTION      0.00  1432.01     0  01:35           0        4.79       0.056
  YS02001644           JUNCTION    866.68  1971.47     0  01:35        1.45        6.24       0.045
  YS02001647           JUNCTION      0.00  1970.82     0  01:35           0        5.96       0.004
  YS02001649           JUNCTION      0.00  2264.26     0  01:36           0        7.37       0.001
  YS02001652           JUNCTION      0.00  1059.52     0  01:38           0         1.4      -0.124
  YS02001655           JUNCTION      0.00  1059.65     0  01:38           0         1.4      -0.093
  YS02001658           JUNCTION      0.00  1059.54     0  01:38           0         1.4      -0.067
  YS02001661           JUNCTION      0.00  1061.65     0  01:38           0         1.4       0.019
  YS02001664           JUNCTION    871.53   871.53     0  01:39         1.4         1.4      -0.013
  YS02001745           JUNCTION    541.27   762.08     0  01:37       0.794       0.796       0.249
  YS02001748           JUNCTION      0.00   953.52     0  01:36           0       0.799      -0.501
  YS02001751           JUNCTION      0.00   648.76     0  01:37           0       0.808       0.085
  YS02001754           JUNCTION      0.00   648.48     0  01:37           0       0.813      -0.240
  YS02001757           JUNCTION      0.00  3600.62     0  01:38           0        10.9       0.054
  YS02001759           JUNCTION    784.59  1529.48     0  01:37        1.16        2.72      -0.017
  YS02001762           JUNCTION      0.00   802.33     0  01:44           0        1.56      -0.020
  YS02001765           JUNCTION      0.00   801.99     0  01:44           0        1.56      -0.009
  YS02001767           JUNCTION      0.00   801.89     0  01:44           0        1.56      -0.019
  YS02001770           JUNCTION   1075.76  1075.76     0  01:39         1.7        1.74      -0.046
  YS02001774           JUNCTION      0.00   679.36     0  01:36           0       0.201       0.480
  YS02001779           JUNCTION      0.00   681.27     0  01:36           0       0.157      -0.463
  YS02001783           JUNCTION      0.00  1247.47     0  02:25           0         5.6      -0.002
  YS02001784           JUNCTION      0.00  1248.08     0  02:25           0         5.6      -0.001
  YS02001786           JUNCTION      0.00  1248.80     0  02:25           0         5.6       0.003
  YS02001788           JUNCTION      0.00  1249.57     0  02:25           0         5.6       0.001
  YS02001790           JUNCTION      0.00  1248.36     0  02:24           0         5.6       0.022
  YS02001791           JUNCTION      0.00  1316.18     0  02:24           0         5.6      -0.040
  YS02001793           JUNCTION      0.00  1290.20     0  02:24           0         5.6       0.003
  YS02001882           JUNCTION      0.00    24.47     0  01:59           0       0.014       1.796
  YS02001884           JUNCTION      0.00    37.24     0  01:23           0      0.0511       3.558
  YS02001887           JUNCTION   1937.64  1937.64     0  02:25        2.36        2.39       0.155
  YS02001890           JUNCTION      0.00  1937.09     0  02:25           0        2.35       0.167
  YS02001895           JUNCTION      0.00   525.38     0  02:25           0        1.72       0.102
  YS02001898           JUNCTION      0.00   522.65     0  02:25           0        1.71      -0.044
  YS02001901           JUNCTION      0.00   518.22     0  02:21           0        1.72       0.140
  YS02001904           JUNCTION      0.00   518.22     0  02:24           0        1.72       0.118
  YS02001907           JUNCTION      0.00  4027.21     0  02:25           0        6.44       0.254
  YS02001910           JUNCTION      0.00  1993.18     0  02:25           0        4.27       0.145
  YS02001915           JUNCTION   2531.60  3739.59     0  02:25        3.02        4.69       0.000
  YS02001918           JUNCTION      0.00  1293.78     0  02:25           0        1.68      -0.021
  YS02001920           JUNCTION      0.00  1291.32     0  02:25           0        1.68       0.015
  YS02001923           JUNCTION      0.00  1284.72     0  02:25           0        1.68      -0.027
  YS02001926           JUNCTION      0.00  1280.57     0  02:25           0        1.67      -0.009
  YS02001929           JUNCTION   1278.95  1278.95     0  02:25        1.67        1.67      -0.005
  YS02006553           JUNCTION      0.00  1521.30     0  02:25           0        3.25       0.342
  YS02006556           JUNCTION      0.00  1522.14     0  02:25           0        3.27       0.221
  YS02006558           JUNCTION   2764.64  2764.64     0  02:25        3.32        6.09       0.048
  YS02006561           JUNCTION      0.00  1247.47     0  02:25           0         5.6      -0.003
  YS02163301           JUNCTION      0.00   857.43     0  01:35           0        3.45       0.039
  YS02163601           JUNCTION      0.00  1432.20     0  01:35           0        4.78       0.102
  YS02164001           JUNCTION      0.00  1431.80     0  01:35           0        4.78       0.043
  CC-1                 OUTFALL       0.00   683.00     0  00:15           0        4.56       0.000
  CC-2                 OUTFALL       0.00   683.00     0  00:30           0        4.29       0.000
  JK-1                 OUTFALL       0.00  1000.00     0  00:10           0        1.59       0.000
  JK-2                 OUTFALL       0.00  1000.00     0  01:25           0        2.67       0.000
  WSC                  OUTFALL       0.00   557.29     0  02:18           0        4.51       0.000
  CC-storage           STORAGE       0.00  3598.22     0  01:37           0        13.1      -0.245
  JK-storage           STORAGE       0.00  1282.26     0  02:24           0        5.75      -0.306
  
  
  **********************
  Node Surcharge Summary
  **********************
  
  Surcharging occurs when water rises above the top of the highest conduit.
  ---------------------------------------------------------------------
                                               Max. Height   Min. Depth
                                   Hours       Above Crown    Below Rim
  Node                 Type      Surcharged         Meters       Meters
  ---------------------------------------------------------------------
  WS02004404           JUNCTION        0.04          0.055        2.725
  WS02006109           JUNCTION        1.50          0.568        1.252
  WS02006110           JUNCTION        0.99          0.544        1.306
  WS02006111           JUNCTION        0.01          0.856        1.014
  WS02006112           JUNCTION        1.18          1.680        0.000
  WS02006113           JUNCTION        0.01          0.705        1.225
  WS02006115           JUNCTION        0.01          0.682        1.568
  WS02006116           JUNCTION        0.01          0.053        2.237
  WS02006228           JUNCTION        1.49          0.810        1.390
  WS02006229           JUNCTION        1.50          0.865        1.585
  WS02006230           JUNCTION        1.00          0.980        0.590
  WS02006231           JUNCTION        1.09          0.900        0.630
  WS02006232           JUNCTION        1.52          0.872        0.608
  WS02006234           JUNCTION        1.27          0.838        0.402
  WS02006235           JUNCTION        1.46          1.008        0.282
  WS02006238           JUNCTION        1.49          1.051        0.379
  WS02006239           JUNCTION        1.48          0.965        0.325
  WS02006240           JUNCTION        1.48          0.877        0.513
  WS02006242           JUNCTION        1.50          0.820        0.000
  WS02006243           JUNCTION        1.48          0.683        0.087
  WS02006245           JUNCTION        1.47          0.589        0.261
  WS02006247           JUNCTION        1.47          0.538        0.222
  WS02006248           JUNCTION        1.46          0.380        0.000
  WS02006249           JUNCTION        1.46          0.390        0.000
  WS02006251           JUNCTION        1.15          0.756        0.424
  WS02006252           JUNCTION        1.72          1.100        0.000
  WS02006256           JUNCTION        5.75          2.050        0.000
  YS02001580           JUNCTION        0.65          0.450        0.000
  YS02001583           JUNCTION        0.66          0.500        0.000
  YS02001586           JUNCTION        0.78          0.510        0.000
  YS02001590           JUNCTION        0.86          0.750        0.000
  YS02001593           JUNCTION        0.86          0.755        0.085
  YS02001596           JUNCTION        0.96          0.997        0.073
  YS02001600           JUNCTION        1.11          1.190        0.000
  YS02001601           JUNCTION        1.57          1.440        0.000
  YS02001602           JUNCTION        1.39          1.270        0.000
  YS02001605           JUNCTION        1.33          1.180        0.000
  YS02001607           JUNCTION        0.82          0.680        0.000
  YS02001610           JUNCTION        0.85          0.680        0.000
  YS02001613           JUNCTION        0.82          0.700        0.000
  YS02001616           JUNCTION        0.78          0.610        0.000
  YS02001619           JUNCTION        0.76          0.610        0.000
  YS02001622           JUNCTION        0.76          0.620        0.000
  YS02001625           JUNCTION        0.94          0.780        0.000
  YS02001629           JUNCTION        0.71          0.470        0.000
  YS02001633           JUNCTION        0.96          1.060        0.000
  YS02001641           JUNCTION        0.90          1.067        0.033
  YS02001644           JUNCTION        0.87          0.920        0.000
  YS02001647           JUNCTION        0.67          0.814        0.086
  YS02001649           JUNCTION        0.80          1.050        0.000
  YS02001652           JUNCTION        0.58          1.130        0.000
  YS02001655           JUNCTION        0.38          1.200        0.000
  YS02001658           JUNCTION        0.18          1.300        0.000
  YS02001661           JUNCTION        0.02          1.390        0.000
  YS02001745           JUNCTION        0.01          1.350        0.000
  YS02001748           JUNCTION        0.07          1.190        0.000
  YS02001751           JUNCTION        0.25          1.200        0.000
  YS02001754           JUNCTION        0.45          1.150        0.000
  YS02001757           JUNCTION        0.87          1.210        0.000
  YS02001759           JUNCTION        0.76          1.210        0.000
  YS02001762           JUNCTION        0.73          1.150        0.000
  YS02001765           JUNCTION        0.67          1.100        0.000
  YS02001767           JUNCTION        0.63          1.030        0.000
  YS02001770           JUNCTION        0.59          0.920        0.000
  YS02001774           JUNCTION        0.70          1.010        0.040
  YS02001779           JUNCTION        0.44          0.680        0.000
  YS02001783           JUNCTION        0.89          0.600        1.000
  YS02001784           JUNCTION        0.86          0.444        1.046
  YS02001786           JUNCTION        0.71          0.150        1.280
  YS02001882           JUNCTION        0.82          0.830        0.000
  YS02001884           JUNCTION        0.83          0.869        0.001
  YS02001887           JUNCTION        0.88          0.950        0.000
  YS02001890           JUNCTION        0.90          0.760        0.000
  YS02001895           JUNCTION        0.80          0.573        0.177
  YS02001898           JUNCTION        0.79          0.542        0.198
  YS02001901           JUNCTION        0.86          0.710        0.160
  YS02001904           JUNCTION        0.85          0.660        0.190
  YS02001907           JUNCTION        1.27          0.950        0.000
  YS02001910           JUNCTION        0.94          1.043        0.057
  YS02001915           JUNCTION        0.81          1.000        0.000
  YS02001918           JUNCTION        0.70          0.810        0.000
  YS02001920           JUNCTION        0.71          1.001        0.139
  YS02001923           JUNCTION        0.29          0.653        0.167
  YS02001926           JUNCTION        0.33          0.772        0.128
  YS02001929           JUNCTION        0.19          0.732        0.048
  YS02006553           JUNCTION        1.31          1.074        0.116
  YS02006556           JUNCTION        1.08          1.153        0.197
  YS02006558           JUNCTION        1.05          1.223        0.177
  YS02006561           JUNCTION        0.65          0.310        0.840
  YS02163301           JUNCTION        0.94          0.959        0.071
  YS02163601           JUNCTION        0.99          1.080        0.000
  YS02164001           JUNCTION        0.91          1.100        0.000
  
  
  *********************
  Node Flooding Summary
  *********************
  
  Flooding refers to all water that overflows a node, whether it ponds or not.
  --------------------------------------------------------------------------
                                                             Total   Maximum
                                 Maximum   Time of Max       Flood    Ponded
                        Hours       Rate    Occurrence      Volume     Depth
  Node                 Flooded       LPS   days hr:min    10^6 ltr    Meters
  --------------------------------------------------------------------------
  WS02006112              0.01   1405.86      0  00:00       0.047     0.000
  WS02006242              0.01     27.59      0  01:46       0.000     0.000
  WS02006248              0.01     28.08      0  02:00       0.000     0.000
  WS02006249              1.12    105.32      0  01:48       0.276     0.000
  WS02006252              0.01      9.52      0  02:51       0.000     0.000
  WS02006256              1.36    288.29      0  01:45       0.488     0.000
  YS02001580              0.01    131.41      0  01:34       0.001     0.000
  YS02001583              0.01    240.21      0  01:34       0.000     0.000
  YS02001586              0.53    425.16      0  01:42       0.417     0.000
  YS02001590              0.01    117.01      0  01:32       0.000     0.000
  YS02001600              0.01      4.93      0  01:33       0.000     0.000
  YS02001601              0.71   1232.85      0  01:40       1.408     0.000
  YS02001602              0.59     62.00      0  01:57       0.120     0.000
  YS02001605              0.01      7.65      0  01:34       0.000     0.000
  YS02001607              0.01     74.92      0  01:34       0.000     0.000
  YS02001610              0.52    701.76      0  01:41       0.713     0.000
  YS02001613              0.01      0.25      0  01:38       0.000     0.000
  YS02001616              0.01    137.02      0  01:34       0.000     0.000
  YS02001619              0.01    278.53      0  01:34       0.001     0.000
  YS02001622              0.01    271.31      0  01:34       0.001     0.000
  YS02001625              0.48   1303.44      0  01:42       1.086     0.000
  YS02001629              0.11    393.51      0  01:34       0.074     0.000
  YS02001633              0.01      2.53      0  01:36       0.000     0.000
  YS02001644              0.16    946.12      0  01:38       0.265     0.000
  YS02001649              0.01    191.09      0  01:37       0.001     0.000
  YS02001652              0.01    305.90      0  01:35       0.000     0.000
  YS02001655              0.01    466.69      0  01:36       0.001     0.000
  YS02001658              0.01    431.24      0  01:37       0.001     0.000
  YS02001661              0.01    329.44      0  01:37       0.000     0.000
  YS02001745              0.01    370.37      0  01:37       0.000     0.000
  YS02001748              0.01    507.35      0  01:37       0.002     0.000
  YS02001751              0.01    483.25      0  01:37       0.001     0.000
  YS02001754              0.01    323.87      0  01:36       0.000     0.000
  YS02001757              0.01     35.58      0  01:37       0.000     0.000
  YS02001759              0.01      5.52      0  01:37       0.000     0.000
  YS02001762              0.01     52.23      0  01:36       0.000     0.000
  YS02001765              0.01     44.94      0  01:36       0.000     0.000
  YS02001767              0.01    167.14      0  01:36       0.000     0.000
  YS02001770              0.01    413.75      0  01:36       0.001     0.000
  YS02001779              0.13    660.33      0  01:36       0.138     0.000
  YS02001882              0.01      1.04      0  02:23       0.000     0.000
  YS02001887              0.01      3.17      0  02:23       0.000     0.000
  YS02001890              0.39   1421.93      0  02:25       0.634     0.000
  YS02001907              0.63   4026.67      0  02:25       3.654     0.000
  YS02001915              0.15   1746.40      0  02:25       0.422     0.000
  YS02001918              0.03     84.80      0  02:25       0.005     0.000
  YS02163601              0.01     15.20      0  01:36       0.000     0.000
  YS02164001              0.01     13.49      0  01:36       0.000     0.000
  
  
  **********************
  Storage Volume Summary
  **********************
  
  --------------------------------------------------------------------------------------------------
                         Average     Avg  Evap Exfil       Maximum     Max    Time of Max    Maximum
                          Volume    Pcnt  Pcnt  Pcnt        Volume    Pcnt     Occurrence    Outflow
  Storage Unit           1000 m3    Full  Loss  Loss       1000 m3    Full    days hr:min        LPS
  --------------------------------------------------------------------------------------------------
  CC-storage               2.235      35     0     0         4.363      68       0  02:12    1766.00
  JK-storage               0.090      31     0     0         0.213      73       0  02:37    2300.00
  
  
  ***********************
  Outfall Loading Summary
  ***********************
  
  -----------------------------------------------------------
                         Flow       Avg       Max       Total
                         Freq      Flow      Flow      Volume
  Outfall Node           Pcnt       LPS       LPS    10^6 ltr
  -----------------------------------------------------------
  CC-1                  41.41    683.00    683.00       4.559
  CC-2                  41.65    683.00    683.00       4.285
  JK-1                   8.72   1000.00   1000.00       1.587
  JK-2                  16.75   1000.00   1000.00       2.672
  WSC                   99.99    207.89    557.29       4.515
  -----------------------------------------------------------
  System                41.70   3573.89    557.29      17.619
  
  
  ********************
  Link Flow Summary
  ********************
  
  -----------------------------------------------------------------------------
                                 Maximum  Time of Max   Maximum    Max/    Max/
                                  |Flow|   Occurrence   |Veloc|    Full    Full
  Link                 Type          LPS  days hr:min     m/sec    Flow   Depth
  -----------------------------------------------------------------------------
  1                    CONDUIT    557.29     0  02:18      2.83    0.19    0.30
  WS02003060WS02003069 CONDUIT    555.30     0  02:16      1.64    0.22    0.34
  WS02003066WSF200     CONDUIT    538.78     0  02:15      2.85    0.09    0.22
  WS02003067WS02003066 CONDUIT    538.75     0  02:15      1.21    0.17    0.42
  WS02003069WS02003072 CONDUIT    555.56     0  02:16      1.37    0.27    0.39
  WS02003072WS02003073 CONDUIT    555.55     0  02:17      1.44    1.20    0.37
  WS02004401WS02004402 CONDUIT   1248.69     0  00:01      2.52    1.50    0.89
  WS02004402WS02004403 CONDUIT    929.44     0  00:01      2.21    1.34    0.91
  WS02004403WS02004404 CONDUIT    877.02     0  00:01      2.01    0.63    0.96
  WS02004404WS02004405 CONDUIT    827.31     0  00:01      2.30    8.11    0.98
  WS02004405WS02004406 CONDUIT    768.45     0  00:02      2.19    1.52    0.96
  WS02004406WS02004407 CONDUIT    540.56     0  02:13      1.04    0.24    0.63
  WS02004407WS02004409 CONDUIT    540.09     0  02:13      2.06    0.19    0.48
  WS02004409WS02004410 CONDUIT    539.50     0  02:14      1.39    0.70    0.68
  WS02004410WS02004411 CONDUIT    539.24     0  02:14      1.32    0.74    0.69
  WS02004411WS02004412 CONDUIT    538.90     0  02:14      1.28    0.77    0.70
  WS02004412WS02004413 CONDUIT    538.92     0  02:15      1.25    0.36    0.78
  WS02004413WS02003067 CONDUIT    538.73     0  02:15      1.11    0.23    0.59
  WS02006109WS02006110 CONDUIT   1446.81     0  00:00      2.88    2.78    1.00
  WS02006110WS02006113 CONDUIT    568.35     0  02:24      1.38    0.52    1.00
  WS02006111WS02006112 CONDUIT   2307.30     0  00:00      9.18    1.10    1.00
  WS02006112WS02006115 CONDUIT    953.54     0  00:00      1.24    0.56    1.00
  WS02006113WS02006111 CONDUIT   1180.41     0  00:00      2.46    1.41    1.00
  WS02006115WS02006116 CONDUIT   1264.47     0  00:00      1.74    1.62    1.00
  WS02006116WS02004401 CONDUIT   1786.04     0  00:00      2.94    2.46    0.87
  WS02006228WS02006109 CONDUIT    869.18     0  00:00      1.91    3.80    1.00
  WS02006229WS02006228 CONDUIT    561.05     0  02:24      1.12    1.86    1.00
  WS02006230WS02006229 CONDUIT    696.39     0  00:00      1.89   15.50    1.00
  WS02006231WS02006230 CONDUIT    586.97     0  02:51      1.91    8.90    1.00
  WS02006232WS02006231 CONDUIT    580.86     0  02:16      1.80    1.22    1.00
  WS02006234WS02006232 CONDUIT    580.24     0  02:16      1.51    1.17    1.00
  WS02006235WS02006234 CONDUIT    575.93     0  02:16      1.50    6.08    1.00
  WS02006238WS02006235 CONDUIT    426.51     0  02:50      1.41    0.95    1.00
  WS02006239WS02006238 CONDUIT    425.50     0  02:20      1.11    1.36    1.00
  WS02006240WS02006239 CONDUIT    425.61     0  02:20      1.16    1.34    1.00
  WS02006242WS02006240 CONDUIT    423.34     0  02:20      1.10    1.68    1.00
  WS02006243WS02006242 CONDUIT    423.51     0  02:20      1.22    0.90    1.00
  WS02006245WS02006243 CONDUIT    422.60     0  02:20      1.34    1.25    1.00
  WS02006247WS02006245 CONDUIT    422.93     0  02:20      1.36    3.35    1.00
  WS02006248WS02006247 CONDUIT    423.70     0  02:20      1.46    0.92    1.00
  WS02006249WS02006248 CONDUIT    423.36     0  02:20      1.39    2.32    1.00
  WS02006251WS02006249 CONDUIT    502.60     0  03:25      2.13    1.45    1.00
  WS02006252WS02006251 CONDUIT    411.45     0  02:51     17.81    1.51    1.00
  WS02006256WS02006235 CONDUIT    288.88     0  00:10      4.22    3.06    1.00
  WSF200WS02003060     CONDUIT    538.91     0  02:15      2.06    0.12    0.28
  YS02001580YS02001583 CONDUIT    181.95     0  01:34      0.93    0.71    1.00
  YS02001583YS02001586 CONDUIT    212.49     0  01:34      0.94    0.32    1.00
  YS02001586YS02001590 CONDUIT    318.31     0  01:57      1.29    0.56    1.00
  YS02001590YS02001593 CONDUIT    318.25     0  01:57      1.13    2.00    1.00
  YS02001593YS02001596 CONDUIT    318.16     0  02:04      1.75    0.50    1.00
  YS02001596YS02001600 CONDUIT    318.45     0  01:57      1.21    0.62    1.00
  YS02001600YS02001601 CONDUIT    318.62     0  01:57      1.13    0.55    1.00
  YS02001601YS02001602 CONDUIT    579.24     0  01:34      2.05    2.09    1.00
  YS02001602YS02001605 CONDUIT    579.22     0  01:34      2.05   12.26    1.00
  YS02001605YS02001607 CONDUIT    579.15     0  01:34      2.05    3.18    1.00
  YS02001607YS02001610 CONDUIT    544.94     0  01:34      0.72    0.52    1.00
  YS02001610YS02001613 CONDUIT    548.36     0  01:34      0.70    0.63    1.00
  YS02001613YS02001616 CONDUIT    536.43     0  01:34      0.68    0.46    1.00
  YS02001616YS02001619 CONDUIT    505.91     0  01:34      0.67    0.88    1.00
  YS02001619YS02001622 CONDUIT    960.04     0  01:34      1.30    1.41    1.00
  YS02001622YS02001625 CONDUIT    960.29     0  01:34      1.22    0.51    1.00
  YS02001625YS02001629 CONDUIT    950.98     0  01:34      1.21    0.45    1.00
  YS02001629YS02163301 CONDUIT    857.43     0  01:35      1.09    1.06    1.00
  YS02001633YS02163601 CONDUIT   1432.20     0  01:35      1.82    1.50    1.00
  YS02001641YS02001644 CONDUIT   1432.17     0  01:35      1.82    4.63    1.00
  YS02001644YS02001647 CONDUIT   1970.82     0  01:35      2.51    1.16    1.00
  YS02001647YS02001649 CONDUIT   1987.40     0  01:35      2.53    1.05    1.00
  YS02001649YS02001757 CONDUIT   2264.33     0  01:36      2.88    1.37    1.00
  YS02001652YS02001649 CONDUIT   1059.64     0  01:38      1.35    0.53    1.00
  YS02001655YS02001652 CONDUIT   1059.52     0  01:38      1.54    0.51    1.00
  YS02001658YS02001655 CONDUIT   1059.65     0  01:38      2.06    0.45    1.00
  YS02001661YS02001658 CONDUIT   1059.54     0  01:38      2.49    0.42    1.00
  YS02001664YS02001661 CONDUIT   1061.65     0  01:38      2.57    0.33    0.99
  YS02001745YS02001748 CONDUIT    649.75     0  01:37      2.46    0.25    1.00
  YS02001748YS02001751 CONDUIT    648.76     0  01:37      1.92    0.33    1.00
  YS02001751YS02001754 CONDUIT    648.48     0  01:37      1.58    0.31    1.00
  YS02001754YS02001757 CONDUIT    648.85     0  01:37      0.83    0.26    1.00
  YS02001757CaochengTiaoxuchi CONDUIT   3598.22     0  01:37      4.99    1.56    1.00
  YS02001759YS02001757 CONDUIT   1531.50     0  01:37      1.95    1.09    1.00
  YS02001762YS02001759 CONDUIT    802.45     0  01:44      1.02    0.92    1.00
  YS02001765YS02001762 CONDUIT    802.33     0  01:44      1.02    0.75    1.00
  YS02001767YS02001765 CONDUIT    801.99     0  01:44      1.02    1.01    1.00
  YS02001770YS02001767 CONDUIT    801.89     0  01:44      1.02    3.18    1.00
  YS02001774YS02001770 CONDUIT    679.36     0  01:36      0.86    0.43    1.00
  YS02001779YS02001774 CONDUIT    681.27     0  01:36      0.87    0.34    1.00
  YS02001783YS02001784 CONDUIT   1248.08     0  02:25      2.48    1.72    1.00
  YS02001784YS02001785 CONDUIT   1248.80     0  02:25      2.48    2.91    1.00
  YS02001786YS02001788 CONDUIT   1249.57     0  02:25      2.62    2.41    0.90
  YS02001788YS02001790 CONDUIT   1248.36     0  02:24      2.80    0.92    0.85
  YS02001790YS02001791 CONDUIT   1316.18     0  02:24      3.47    1.43    0.71
  YS02001791YS02001793 CONDUIT   1290.20     0  02:24      6.78    0.55    0.45
  YS02001793JiankangQianchi CONDUIT   1282.26     0  02:24      2.53    0.10    0.65
  YS02001882YS02001884 CONDUIT     24.47     0  01:59      0.23    0.03    1.00
  YS02001884YS02001887 CONDUIT     37.24     0  01:23      0.18    0.05    1.00
  YS02001887YS02001890 CONDUIT   1937.09     0  02:25      2.47    3.32    1.00
  YS02001890YS02001895 CONDUIT    525.38     0  02:25      0.67    0.24    1.00
  YS02001895YS02001898 CONDUIT    522.65     0  02:25      0.67    0.91    1.00
  YS02001898YS02001901 CONDUIT    518.22     0  02:21      0.66    0.33    1.00
  YS02001901YS02001904 CONDUIT    518.22     0  02:24      0.66    0.80    1.00
  YS02001904YS02001907 CONDUIT    520.46     0  02:25      0.66    0.18    1.00
  YS02001907YS02006553 CONDUIT   1522.11     0  02:25      1.69    1.79    1.00
  YS02001910YS02001907 CONDUIT   1992.96     0  02:27      2.54    1.12    1.00
  YS02001915YS02001910 CONDUIT   1993.18     0  02:25      2.54    0.99    1.00
  YS02001918YS02001915 CONDUIT   1216.67     0  02:25      1.55    0.67    1.00
  YS02001920YS02001918 CONDUIT   1293.78     0  02:25      1.65    1.25    1.00
  YS02001923YS02001920 CONDUIT   1291.32     0  02:25      1.64    0.58    1.00
  YS02001926YS02001923 CONDUIT   1284.72     0  02:25      1.64    1.83    1.00
  YS02001929YS02001926 CONDUIT   1280.57     0  02:25      1.63    0.61    1.00
  YS02006553YS02006556 CONDUIT   1521.30     0  02:25      1.94    1.30    1.00
  YS02006556YS02006558 CONDUIT   1522.14     0  02:25      1.94    1.20    1.00
  YS02006558YS02006561 CONDUIT   1247.47     0  02:25      4.41    2.76    1.00
  YS02006561YS02001783 CONDUIT   1247.47     0  02:25      2.48    0.65    1.00
  YS02163301YS02001633 CONDUIT    857.40     0  01:35      1.09    0.81    1.00
  YS02163601YS02164001 CONDUIT   1431.80     0  01:35      1.82    1.27    1.00
  YS02164001YS02001641 CONDUIT   1432.01     0  01:35      1.82    1.96    1.00
  CC-R1                PUMP       683.00     0  00:15              1.00
  CC-R2                PUMP       683.00     0  00:30              1.00
  CC-S1                PUMP       200.00     0  00:25              1.00
  CC-S2                PUMP       200.00     0  00:10              1.00
  JK-R1                PUMP      1000.00     0  00:10              1.00
  JK-R2                PUMP      1000.00     0  01:25              1.00
  JK-S                 PUMP       300.00     0  00:10              1.00
  
  
  ***************************
  Flow Classification Summary
  ***************************
  
  -------------------------------------------------------------------------------------
                      Adjusted    ---------- Fraction of Time in Flow Class ---------- 
                       /Actual         Up    Down  Sub   Sup   Up    Down  Norm  Inlet 
  Conduit               Length    Dry  Dry   Dry   Crit  Crit  Crit  Crit  Ltd   Ctrl  
  -------------------------------------------------------------------------------------
  1                       1.00   0.00  0.00  0.00  0.00  1.00  0.00  0.00  0.44  0.00
  WS02003060WS02003069    1.00   0.00  0.00  0.00  0.95  0.05  0.00  0.00  0.76  0.00
  WS02003066WSF200        1.00   0.01  0.00  0.00  0.00  0.99  0.00  0.00  0.84  0.00
  WS02003067WS02003066    1.00   0.01  0.00  0.00  0.99  0.00  0.00  0.00  0.00  0.00
  WS02003069WS02003072    1.00   0.00  0.00  0.00  1.00  0.00  0.00  0.00  0.79  0.00
  WS02003072WS02003073    1.00   0.00  0.00  0.00  0.00  0.00  0.00  1.00  0.00  0.00
  WS02004401WS02004402    1.00   0.00  0.00  0.00  1.00  0.00  0.00  0.00  0.00  0.00
  WS02004402WS02004403    1.00   0.00  0.00  0.00  1.00  0.00  0.00  0.00  0.00  0.00
  WS02004403WS02004404    1.00   0.00  0.00  0.00  1.00  0.00  0.00  0.00  0.00  0.00
  WS02004404WS02004405    1.00   0.00  0.00  0.00  1.00  0.00  0.00  0.00  0.01  0.00
  WS02004405WS02004406    1.00   0.00  0.00  0.00  1.00  0.00  0.00  0.00  0.00  0.00
  WS02004406WS02004407    1.00   0.00  0.00  0.00  1.00  0.00  0.00  0.00  0.00  0.00
  WS02004407WS02004409    1.00   0.00  0.00  0.00  0.99  0.01  0.00  0.00  0.99  0.00
  WS02004409WS02004410    1.00   0.00  0.00  0.00  1.00  0.00  0.00  0.00  0.00  0.00
  WS02004410WS02004411    1.00   0.00  0.00  0.00  1.00  0.00  0.00  0.00  0.00  0.00
  WS02004411WS02004412    1.00   0.00  0.00  0.00  1.00  0.00  0.00  0.00  0.00  0.00
  WS02004412WS02004413    1.00   0.00  0.00  0.00  0.99  0.00  0.00  0.00  0.00  0.00
  WS02004413WS02003067    1.00   0.01  0.00  0.00  0.00  0.00  0.99  0.00  0.00  0.00
  WS02006109WS02006110    1.00   0.00  0.00  0.00  1.00  0.00  0.00  0.00  0.00  0.00
  WS02006110WS02006113    1.00   0.00  0.00  0.00  1.00  0.00  0.00  0.00  0.00  0.00
  WS02006111WS02006112    1.00   0.00  0.00  0.00  1.00  0.00  0.00  0.00  1.00  0.00
  WS02006112WS02006115    1.00   0.00  0.00  0.00  1.00  0.00  0.00  0.00  0.00  0.00
  WS02006113WS02006111    1.00   0.00  0.00  0.00  0.00  1.00  0.00  0.00  0.11  0.00
  WS02006115WS02006116    1.00   0.00  0.00  0.00  1.00  0.00  0.00  0.00  0.00  0.00
  WS02006116WS02004401    1.00   0.00  0.00  0.00  1.00  0.00  0.00  0.00  0.00  0.00
  WS02006228WS02006109    1.00   0.00  0.00  0.00  1.00  0.00  0.00  0.00  0.00  0.00
  WS02006229WS02006228    1.00   0.00  0.00  0.00  1.00  0.00  0.00  0.00  0.00  0.00
  WS02006230WS02006229    1.00   0.00  0.00  0.00  1.00  0.00  0.00  0.00  0.02  0.00
  WS02006231WS02006230    1.00   0.00  0.00  0.00  0.31  0.00  0.69  0.00  0.00  0.00
  WS02006232WS02006231    1.00   0.00  0.00  0.00  0.99  0.00  0.01  0.00  0.00  0.00
  WS02006234WS02006232    1.00   0.00  0.00  0.00  1.00  0.00  0.00  0.00  0.12  0.00
  WS02006235WS02006234    1.00   0.00  0.00  0.00  0.83  0.00  0.16  0.00  0.00  0.00
  WS02006238WS02006235    1.00   0.00  0.00  0.00  1.00  0.00  0.00  0.00  0.00  0.00
  WS02006239WS02006238    1.00   0.00  0.00  0.00  1.00  0.00  0.00  0.00  0.26  0.00
  WS02006240WS02006239    1.00   0.02  0.00  0.00  0.75  0.00  0.00  0.23  0.03  0.00
  WS02006242WS02006240    1.00   0.02  0.00  0.00  0.96  0.00  0.02  0.00  0.00  0.00
  WS02006243WS02006242    1.00   0.02  0.00  0.00  0.97  0.00  0.00  0.01  0.62  0.00
  WS02006245WS02006243    1.00   0.02  0.00  0.00  0.82  0.00  0.00  0.16  0.01  0.00
  WS02006247WS02006245    1.00   0.02  0.00  0.00  0.92  0.00  0.00  0.06  0.00  0.00
  WS02006248WS02006247    1.00   0.01  0.00  0.00  0.94  0.00  0.00  0.04  0.49  0.00
  WS02006249WS02006248    1.00   0.01  0.00  0.00  0.64  0.00  0.35  0.00  0.00  0.00
  WS02006251WS02006249    1.00   0.01  0.00  0.00  0.97  0.01  0.00  0.00  0.61  0.00
  WS02006252WS02006251    1.00   0.01  0.25  0.00  0.21  0.00  0.53  0.00  0.00  0.00
  WS02006256WS02006235    1.00   0.00  0.00  0.00  0.98  0.02  0.00  0.00  0.01  0.00
  WSF200WS02003060        1.00   0.00  0.01  0.00  0.33  0.65  0.00  0.00  0.73  0.00
  YS02001580YS02001583    1.00   0.27  0.39  0.00  0.34  0.00  0.00  0.00  0.70  0.00
  YS02001583YS02001586    1.00   0.37  0.19  0.00  0.44  0.00  0.01  0.00  0.70  0.00
  YS02001586YS02001590    1.00   0.20  0.00  0.00  0.56  0.02  0.00  0.21  0.31  0.00
  YS02001590YS02001593    1.00   0.20  0.00  0.00  0.24  0.00  0.56  0.00  0.00  0.00
  YS02001593YS02001596    1.00   0.20  0.00  0.00  0.27  0.01  0.00  0.51  0.02  0.00
  YS02001596YS02001600    1.00   0.20  0.00  0.00  0.37  0.01  0.00  0.41  0.05  0.00
  YS02001600YS02001601    1.00   0.20  0.00  0.00  0.79  0.00  0.00  0.00  0.61  0.00
  YS02001601YS02001602    1.00   0.20  0.00  0.00  0.80  0.00  0.00  0.00  0.00  0.00
  YS02001602YS02001605    1.00   0.20  0.00  0.00  0.80  0.00  0.00  0.00  0.00  0.00
  YS02001605YS02001607    1.00   0.21  0.00  0.00  0.79  0.00  0.00  0.00  0.00  0.00
  YS02001607YS02001610    1.00   0.20  0.00  0.00  0.79  0.00  0.00  0.00  0.01  0.00
  YS02001610YS02001613    1.00   0.20  0.00  0.00  0.80  0.00  0.00  0.00  0.00  0.00
  YS02001613YS02001616    1.00   0.20  0.00  0.00  0.80  0.00  0.00  0.00  0.00  0.00
  YS02001616YS02001619    1.00   0.20  0.00  0.00  0.80  0.00  0.00  0.00  0.00  0.00
  YS02001619YS02001622    1.00   0.20  0.00  0.00  0.80  0.00  0.00  0.00  0.35  0.00
  YS02001622YS02001625    1.00   0.20  0.00  0.00  0.80  0.00  0.00  0.00  0.03  0.00
  YS02001625YS02001629    1.00   0.20  0.02  0.00  0.31  0.00  0.47  0.00  0.00  0.00
  YS02001629YS02163301    1.00   0.21  0.01  0.00  0.78  0.00  0.00  0.00  0.00  0.00
  YS02001633YS02163601    1.00   0.20  0.00  0.00  0.80  0.00  0.00  0.00  0.01  0.00
  YS02001641YS02001644    1.00   0.20  0.00  0.00  0.80  0.00  0.00  0.00  0.00  0.00
  YS02001644YS02001647    1.00   0.20  0.02  0.00  0.78  0.00  0.00  0.00  0.00  0.00
  YS02001647YS02001649    1.00   0.21  0.01  0.00  0.53  0.25  0.00  0.00  0.58  0.00
  YS02001649YS02001757    1.00   0.00  0.21  0.00  0.51  0.28  0.00  0.00  0.20  0.00
  YS02001652YS02001649    1.00   0.21  0.00  0.00  0.78  0.02  0.00  0.00  0.61  0.00
  YS02001655YS02001652    1.00   0.21  0.00  0.00  0.33  0.03  0.00  0.43  0.06  0.00
  YS02001658YS02001655    1.00   0.21  0.00  0.00  0.52  0.27  0.00  0.00  0.69  0.00
  YS02001661YS02001658    1.00   0.21  0.00  0.00  0.40  0.40  0.00  0.00  0.74  0.00
  YS02001664YS02001661    1.00   0.20  0.00  0.00  0.59  0.21  0.00  0.00  0.86  0.00
  YS02001745YS02001748    1.00   0.20  0.00  0.00  0.18  0.01  0.00  0.60  0.06  0.00
  YS02001748YS02001751    1.00   0.20  0.00  0.00  0.56  0.24  0.00  0.00  0.65  0.00
  YS02001751YS02001754    1.00   0.20  0.00  0.00  0.29  0.01  0.00  0.50  0.03  0.00
  YS02001754YS02001757    1.00   0.00  0.20  0.00  0.79  0.01  0.00  0.00  0.69  0.00
  YS02001757CaochengTiaoxuchi    1.00   0.00  0.00  0.00  0.91  0.09  0.00  0.00  0.80  0.00
  YS02001759YS02001757    1.00   0.00  0.20  0.00  0.79  0.01  0.00  0.00  0.56  0.00
  YS02001762YS02001759    1.00   0.20  0.00  0.00  0.80  0.00  0.00  0.00  0.01  0.00
  YS02001765YS02001762    1.00   0.20  0.00  0.00  0.80  0.00  0.00  0.00  0.61  0.00
  YS02001767YS02001765    1.00   0.20  0.00  0.00  0.80  0.00  0.00  0.00  0.00  0.00
  YS02001770YS02001767    1.00   0.20  0.00  0.00  0.80  0.00  0.00  0.00  0.00  0.00
  YS02001774YS02001770    1.00   0.20  0.00  0.00  0.64  0.00  0.15  0.00  0.01  0.00
  YS02001779YS02001774    1.00   0.21  0.30  0.00  0.50  0.00  0.00  0.00  0.62  0.00
  YS02001783YS02001784    1.00   0.22  0.00  0.00  0.78  0.00  0.00  0.00  0.56  0.00
  YS02001784YS02001785    1.00   0.22  0.00  0.00  0.78  0.00  0.00  0.00  0.41  0.00
  YS02001786YS02001788    1.00   0.22  0.00  0.00  0.45  0.33  0.00  0.00  0.00  0.00
  YS02001788YS02001790    1.00   0.22  0.00  0.00  0.21  0.57  0.00  0.00  0.60  0.00
  YS02001790YS02001791    1.00   0.22  0.00  0.00  0.00  0.78  0.00  0.00  0.14  0.00
  YS02001791YS02001793    1.00   0.22  0.00  0.00  0.00  0.78  0.00  0.00  0.02  0.00
  YS02001793JiankangQianchi    1.00   0.00  0.22  0.00  0.72  0.06  0.00  0.00  0.76  0.00
  YS02001882YS02001884    1.00   0.21  0.00  0.00  0.79  0.00  0.00  0.00  0.00  0.00
  YS02001884YS02001887    1.00   0.20  0.00  0.00  0.79  0.00  0.00  0.00  0.00  0.00
  YS02001887YS02001890    1.00   0.20  0.00  0.00  0.79  0.00  0.01  0.00  0.00  0.00
  YS02001890YS02001895    1.00   0.20  0.01  0.00  0.79  0.00  0.00  0.00  0.00  0.00
  YS02001895YS02001898    1.00   0.21  0.00  0.00  0.78  0.00  0.01  0.00  0.00  0.00
  YS02001898YS02001901    1.00   0.21  0.00  0.00  0.79  0.00  0.00  0.00  0.01  0.00
  YS02001901YS02001904    1.00   0.21  0.00  0.00  0.79  0.00  0.00  0.00  0.00  0.00
  YS02001904YS02001907    1.00   0.20  0.01  0.00  0.79  0.00  0.00  0.00  0.00  0.00
  YS02001907YS02006553    1.00   0.20  0.01  0.00  0.79  0.00  0.00  0.00  0.00  0.00
  YS02001910YS02001907    1.00   0.20  0.00  0.00  0.79  0.00  0.00  0.01  0.01  0.00
  YS02001915YS02001910    1.00   0.20  0.00  0.00  0.79  0.01  0.00  0.00  0.01  0.00
  YS02001918YS02001915    1.00   0.20  0.01  0.00  0.79  0.00  0.00  0.00  0.66  0.00
  YS02001920YS02001918    1.00   0.21  0.01  0.00  0.79  0.00  0.00  0.00  0.00  0.00
  YS02001923YS02001920    1.00   0.21  0.00  0.00  0.79  0.00  0.00  0.00  0.73  0.00
  YS02001926YS02001923    1.00   0.20  0.01  0.00  0.16  0.00  0.64  0.00  0.00  0.00
  YS02001929YS02001926    1.00   0.20  0.00  0.00  0.80  0.00  0.00  0.00  0.77  0.00
  YS02006553YS02006556    1.00   0.20  0.00  0.00  0.80  0.00  0.00  0.00  0.00  0.00
  YS02006556YS02006558    1.00   0.20  0.00  0.00  0.80  0.00  0.00  0.00  0.00  0.00
  YS02006558YS02006561    1.00   0.22  0.00  0.00  0.14  0.64  0.00  0.00  0.12  0.00
  YS02006561YS02001783    1.00   0.22  0.00  0.00  0.31  0.47  0.00  0.00  0.64  0.00
  YS02163301YS02001633    1.00   0.20  0.01  0.00  0.79  0.00  0.00  0.00  0.00  0.00
  YS02163601YS02164001    1.00   0.20  0.00  0.00  0.79  0.00  0.00  0.00  0.01  0.00
  YS02164001YS02001641    1.00   0.20  0.01  0.00  0.79  0.00  0.00  0.00  0.00  0.00
  
  
  *************************
  Conduit Surcharge Summary
  *************************
  
  ----------------------------------------------------------------------------
                                                           Hours        Hours 
                         --------- Hours Full --------   Above Full   Capacity
  Conduit                Both Ends  Upstream  Dnstream   Normal Flow   Limited
  ----------------------------------------------------------------------------
  WS02003072WS02003073        0.01      0.01      0.01      1.29         0.01
  WS02004401WS02004402        0.01      0.01      0.01      0.01         0.01
  WS02004402WS02004403        0.01      0.01      0.01      0.02         0.01
  WS02004403WS02004404        0.01      0.01      0.02      0.01         0.01
  WS02004404WS02004405        0.01      0.02      0.01      2.49         0.01
  WS02004405WS02004406        0.01      0.01      0.01      0.99         0.01
  WS02006109WS02006110        0.99      0.99      1.53      1.09         0.01
  WS02006110WS02006113        0.01      0.01      1.51      0.01         0.01
  WS02006111WS02006112        0.01      0.01      1.65      0.01         0.01
  WS02006112WS02006115        0.01      0.01      1.17      0.01         0.01
  WS02006113WS02006111        0.01      0.01      0.01      0.01         0.01
  WS02006115WS02006116        0.01      0.01      0.01      0.01         0.01
  WS02006116WS02004401        0.01      0.01      0.01      0.02         0.01
  WS02006228WS02006109        1.49      1.51      1.50      1.93         1.49
  WS02006229WS02006228        1.49      1.50      1.49      1.68         1.48
  WS02006230WS02006229        1.55      1.65      1.56      3.08         1.55
  WS02006231WS02006230        1.00      1.00      1.13      2.57         0.01
  WS02006232WS02006231        1.09      1.09      1.52      1.15         0.01
  WS02006234WS02006232        1.45      1.45      1.52      1.13         1.12
  WS02006235WS02006234        1.26      1.27      1.46      2.39         0.02
  WS02006238WS02006235        1.47      1.47      1.51      0.01         0.01
  WS02006239WS02006238        1.49      1.50      1.49      1.56         1.29
  WS02006240WS02006239        1.47      1.48      1.48      1.55         1.18
  WS02006242WS02006240        1.48      1.48      1.50      1.72         0.01
  WS02006243WS02006242        1.48      1.48      1.50      0.01         0.03
  WS02006245WS02006243        1.47      1.47      1.48      0.54         0.61
  WS02006247WS02006245        1.47      1.47      1.47      2.19         1.46
  WS02006248WS02006247        1.46      1.46      1.47      0.01         0.04
  WS02006249WS02006248        1.46      1.46      1.46      2.15         0.01
  WS02006251WS02006249        1.46      1.46      1.46      1.63         1.41
  WS02006252WS02006251        1.70      1.70      1.72      1.70         0.01
  WS02006256WS02006235        2.42      2.47      5.67      1.39         0.01
  YS02001580YS02001583        0.65      0.65      0.70      0.01         0.01
  YS02001583YS02001586        0.66      0.66      0.78      0.01         0.01
  YS02001586YS02001590        0.79      0.79      0.86      0.01         0.01
  YS02001590YS02001593        0.86      0.86      0.87      0.93         0.01
  YS02001593YS02001596        0.87      0.87      0.96      0.01         0.01
  YS02001596YS02001600        1.00      1.00      1.11      0.01         0.01
  YS02001600YS02001601        1.18      1.18      1.57      0.01         0.01
  YS02001601YS02001602        1.39      1.39      1.60      1.12         0.01
  YS02001602YS02001605        1.33      1.33      1.39      2.17         0.01
  YS02001605YS02001607        1.27      1.33      1.27      1.50         1.27
  YS02001607YS02001610        0.82      0.82      0.85      0.01         0.01
  YS02001610YS02001613        0.82      0.82      0.85      0.01         0.01
  YS02001613YS02001616        0.78      0.78      0.82      0.01         0.01
  YS02001616YS02001619        0.76      0.76      0.78      0.01         0.01
  YS02001619YS02001622        0.76      0.76      0.76      0.88         0.74
  YS02001622YS02001625        0.76      0.76      0.94      0.01         0.01
  YS02001625YS02001629        0.71      0.71      0.94      0.01         0.01
  YS02001629YS02163301        0.93      0.93      0.94      0.18         0.17
  YS02001633YS02163601        0.96      0.96      0.99      0.41         0.40
  YS02001641YS02001644        0.87      0.90      0.87      1.62         0.87
  YS02001644YS02001647        0.67      0.67      0.87      0.03         0.01
  YS02001647YS02001649        0.67      0.67      0.80      0.02         0.01
  YS02001649YS02001757        0.80      0.80      0.87      0.26         0.25
  YS02001652YS02001649        0.60      0.60      0.80      0.01         0.01
  YS02001655YS02001652        0.38      0.38      0.58      0.01         0.01
  YS02001658YS02001655        0.18      0.18      0.38      0.01         0.01
  YS02001661YS02001658        0.02      0.02      0.18      0.01         0.01
  YS02001664YS02001661        0.01      0.01      0.05      0.01         0.01
  YS02001745YS02001748        0.01      0.01      0.07      0.01         0.01
  YS02001748YS02001751        0.14      0.14      0.25      0.01         0.01
  YS02001751YS02001754        0.25      0.25      0.45      0.01         0.01
  YS02001754YS02001757        0.51      0.51      0.87      0.01         0.01
  YS02001757CaochengTiaoxuchi        0.73      0.87      1.44      0.39         0.24
  YS02001759YS02001757        0.76      0.76      0.87      0.04         0.04
  YS02001762YS02001759        0.73      0.73      0.76      0.01         0.02
  YS02001765YS02001762        0.67      0.67      0.73      0.01         0.01
  YS02001767YS02001765        0.63      0.63      0.67      0.01         0.04
  YS02001770YS02001767        0.62      0.62      0.63      0.54         0.46
  YS02001774YS02001770        0.59      0.59      0.70      0.01         0.01
  YS02001779YS02001774        0.44      0.44      0.70      0.01         0.01
  YS02001783YS02001784        0.86      0.89      0.86      1.14         0.86
  YS02001784YS02001785        0.71      0.86      0.71      1.49         0.71
  YS02001786YS02001788        0.01      0.71      0.01      1.34         0.01
  YS02001790YS02001791        0.01      0.01      0.01      0.84         0.01
  YS02001793JiankangQianchi        0.01      0.01      4.63      0.01         0.01
  YS02001882YS02001884        0.82      0.82      0.83      0.01         0.01
  YS02001884YS02001887        0.86      0.86      0.88      0.01         0.01
  YS02001887YS02001890        0.90      0.90      0.92      0.31         0.01
  YS02001890YS02001895        0.80      0.80      0.94      0.01         0.01
  YS02001895YS02001898        0.79      0.79      0.80      0.01         0.01
  YS02001898YS02001901        0.80      0.80      0.86      0.01         0.01
  YS02001901YS02001904        0.85      0.85      0.86      0.01         0.01
  YS02001904YS02001907        0.85      0.85      1.32      0.01         0.01
  YS02001907YS02006553        1.50      1.50      1.56      0.06         0.06
  YS02001910YS02001907        0.94      0.94      1.27      0.18         0.17
  YS02001915YS02001910        0.81      0.81      0.94      0.01         0.02
  YS02001918YS02001915        0.70      0.70      0.81      0.01         0.01
  YS02001920YS02001918        0.70      0.70      0.71      0.06         0.01
  YS02001923YS02001920        0.64      0.64      0.71      0.01         0.01
  YS02001926YS02001923        0.29      0.29      0.33      0.14         0.01
  YS02001929YS02001926        0.19      0.19      0.33      0.01         0.01
  YS02006553YS02006556        1.08      1.08      1.31      0.04         0.04
  YS02006556YS02006558        1.20      1.20      1.33      0.03         0.01
  YS02006558YS02006561        0.74      1.05      0.74      1.44         0.74
  YS02006561YS02001783        0.65      0.65      0.89      0.01         0.01
  YS02163301YS02001633        0.94      0.94      0.98      0.01         0.01
  YS02163601YS02164001        0.91      0.91      0.99      0.03         0.01
  YS02164001YS02001641        0.90      0.91      0.90      0.79         0.70
  
  
  ***************
  Pumping Summary
  ***************
  
  ---------------------------------------------------------------------------------------------------------
                                                  Min       Avg       Max     Total     Power    % Time Off
                        Percent   Number of      Flow      Flow      Flow    Volume     Usage    Pump Curve
  Pump                 Utilized   Start-Ups       LPS       LPS       LPS  10^6 ltr     Kw-hr    Low   High
  ---------------------------------------------------------------------------------------------------------
  CC-R1                   23.25          21      0.00    683.00    683.00     4.573     83.15    0.0   34.0
  CC-R2                   21.86          22      0.00    683.00    683.00     4.300     77.85    0.0   34.9
  CC-S1                   25.97          18      0.00    200.00    200.00     1.496      8.88    0.0    0.0
  CC-S2                   24.69          20      0.00    200.00    200.00     1.422      8.38    0.0    0.0
  JK-R1                    5.53          16      0.00   1000.00   1000.00     1.593     17.52    0.0    0.0
  JK-R2                    9.29          12      0.00   1000.00   1000.00     2.675     27.16    0.0    0.0
  JK-S                    16.98          30      0.00    300.00    300.00     1.467     22.97    0.0    0.0
  

  Analysis begun on:  Thu Sep  7 21:55:24 2023
  Analysis ended on:  Thu Sep  7 21:55:35 2023
  Total elapsed time: 00:00:11