
  OWA STORM WATER MANAGEMENT MODEL - VERSION v5.1.14 (OWA 2022-07-31)
  --------------------------------------------------------------

  WARNING 04: minimum elevation drop used for Conduit WS02004404WS02004405
  WARNING 03: negative offset ignored for Link YS02001904YS02001907
  
  *********************************************************
  NOTE: The summary statistics displayed in this report are
  based on results found at every computational time step,  
  not just on results from each reporting time step.
  *********************************************************
  
  ****************
  Analysis Options
  ****************
  Flow Units ............... LPS
  Process Models:
    Rainfall/Runoff ........ YES
    RDII ................... NO
    Snowmelt ............... NO
    Groundwater ............ NO
    Flow Routing ........... YES
    Ponding Allowed ........ NO
    Water Quality .......... NO
  Infiltration Method ...... HORTON
  Flow Routing Method ...... DYNWAVE
  Surcharge Method ......... EXTRAN
  Starting Date ............ 08/28/2015 08:00:00
  Ending Date .............. 08/28/2015 16:00:00
  Antecedent Dry Days ...... 8.0
  Report Time Step ......... 00:01:00
  Wet Time Step ............ 00:01:00
  Dry Time Step ............ 00:01:00
  Routing Time Step ........ 30.00 sec
  Variable Time Step ....... YES
  Maximum Trials ........... 8
  Number of Threads ........ 1
  Head Tolerance ........... 0.001500 m
  
  
  **************************        Volume         Depth
  Runoff Quantity Continuity     hectare-m            mm
  **************************     ---------       -------
  Initial LID Storage ......         0.049         1.488
  Total Precipitation ......         1.748        52.691
  Evaporation Loss .........         0.000         0.000
  Infiltration Loss ........         0.073         2.191
  Surface Runoff ...........         1.281        38.633
  Final Storage ............         0.444        13.378
  Continuity Error (%) .....        -0.041
  
  
  **************************        Volume        Volume
  Flow Routing Continuity        hectare-m      10^6 ltr
  **************************     ---------     ---------
  Dry Weather Inflow .......         0.000         0.000
  Wet Weather Inflow .......         1.281        12.814
  Groundwater Inflow .......         0.000         0.000
  RDII Inflow ..............         0.000         0.000
  External Inflow ..........         0.083         0.834
  External Outflow .........         1.230        12.300
  Flooding Loss ............         0.236         2.362
  Evaporation Loss .........         0.000         0.000
  Exfiltration Loss ........         0.000         0.000
  Initial Stored Volume ....         0.243         2.431
  Final Stored Volume ......         0.178         1.784
  Continuity Error (%) .....        -2.283
  
  
  *************************
  Highest Continuity Errors
  *************************
  Node YS02001583 (-13.54%)
  Node YS02001884 (3.63%)
  Node WS02006256 (-2.87%)
  Node WS02006110 (-1.66%)
  Node YS02001774 (1.39%)
  
  
  ***************************
  Time-Step Critical Elements
  ***************************
  Link WS02006252WS02006251 (31.04%)
  Link WS02004404WS02004405 (25.47%)
  Link WS02006238WS02006235 (17.44%)
  Link WS02003066WSF200 (6.88%)
  Link WS02006235WS02006234 (5.31%)
  
  
  ********************************
  Highest Flow Instability Indexes
  ********************************
  Link WS02006113WS02006111 (37)
  Link WS02004404WS02004405 (18)
  Link WS02006256WS02006235 (16)
  Link WS02004403WS02004404 (15)
  Link WS02006111WS02006112 (14)
  
  
  *************************
  Routing Time Step Summary
  *************************
  Minimum Time Step           :     0.00 sec
  Average Time Step           :     2.77 sec
  Maximum Time Step           :    30.00 sec
  Percent in Steady State     :    -0.00
  Average Iterations per Step :     3.27
  Percent Not Converging      :    13.73
  
  
  ***************************
  Subcatchment Runoff Summary
  ***************************
  
  ------------------------------------------------------------------------------------------------------------------------------
                            Total      Total      Total      Total     Imperv       Perv      Total       Total     Peak  Runoff
                           Precip      Runon       Evap      Infil     Runoff     Runoff     Runoff      Runoff   Runoff   Coeff
  Subcatchment                 mm         mm         mm         mm         mm         mm         mm    10^6 ltr      LPS
  ------------------------------------------------------------------------------------------------------------------------------
  sub60                     52.69       0.00       0.00       1.32      34.86       3.56      38.42        0.50   391.89   0.729
  sub61                     52.69       0.00       0.00       2.02      34.83       5.30      40.14        0.74   566.33   0.762
  sub62                     52.69       0.00       0.00       0.90      37.13       2.42      39.55        1.08   765.88   0.751
  sub63                     52.69       0.00       0.00       3.68      29.83       8.83      38.67        0.88   617.83   0.734
  sub64                     52.69       0.00       0.00       1.77      33.97       4.39      38.36        0.92   612.89   0.728
  sub65                     52.69       0.00       0.00       1.62      36.66       4.01      40.66        1.12   709.42   0.772
  sub66                     52.69       0.00       0.00       4.27      28.84       7.84      36.68        1.71   878.52   0.696
  sub67                     52.69       0.00       0.00       0.90      38.07       2.50      40.57        0.75   614.55   0.770
  sub68                     52.69       0.00       0.00       1.55      33.62       4.07      37.69        1.04   767.92   0.715
  sub69                     52.69       0.00       0.00       1.39      35.42       4.88      40.29        1.49   926.17   0.765
  sub70                     52.69       0.00       0.00       4.65      28.37      10.01      38.38        1.11   506.52   0.728
  sub71                     52.69       0.00       0.00       0.83      33.73       2.19      35.91        0.94   625.42   0.682
  sub72                     52.69       0.00       0.00       0.79      36.43       2.03      38.46        0.53   314.20   0.730
  

  ***********************
  LID Performance Summary
  ***********************

  --------------------------------------------------------------------------------------------------------------------
                                         Total      Evap     Infil   Surface    Drain    Initial     Final  Continuity
                                        Inflow      Loss      Loss   Outflow   Outflow   Storage   Storage       Error
  Subcatchment      LID Control             mm        mm        mm        mm        mm        mm        mm           %
  --------------------------------------------------------------------------------------------------------------------
  sub60             GreenRoof            52.69      0.00      0.00      0.00      0.00      7.05     59.79       -0.07
  sub61             GreenRoof            52.69      0.00      0.00      0.00      0.00      7.05     59.79       -0.07
  sub62             GreenRoof            52.69      0.00      0.00      0.00      0.00      7.05     59.79       -0.07
  sub63             GreenRoof            52.69      0.00      0.00      0.00      0.00      7.05     59.79       -0.07
  sub64             GreenRoof            52.69      0.00      0.00      0.00      0.00      7.05     59.79       -0.07
  sub65             GreenRoof            52.69      0.00      0.00      0.00      0.00      7.05     59.79       -0.07
  sub66             GreenRoof            52.69      0.00      0.00      0.00      0.00      7.05     59.79       -0.07
  sub67             GreenRoof            52.69      0.00      0.00      0.00      0.00      7.05     59.79       -0.07
  sub68             GreenRoof            52.69      0.00      0.00      0.00      0.00      7.05     59.79       -0.07
  sub69             GreenRoof            52.69      0.00      0.00      0.00      0.00      7.05     59.79       -0.07
  sub70             GreenRoof            52.69      0.00      0.00      0.00      0.00      7.05     59.79       -0.07
  sub71             GreenRoof            52.69      0.00      0.00      0.00      0.00      7.05     59.79       -0.07
  sub72             GreenRoof            52.69      0.00      0.00      0.00      0.00      7.05     59.79       -0.07
  
  ******************
  Node Depth Summary
  ******************
  
  ---------------------------------------------------------------------------------
                                 Average  Maximum  Maximum  Time of Max    Reported
                                   Depth    Depth      HGL   Occurrence   Max Depth
  Node                 Type       Meters   Meters   Meters  days hr:min      Meters
  ---------------------------------------------------------------------------------
  WS02003060           JUNCTION     0.21     0.38     5.31     0  02:55        0.38
  WS02003066           JUNCTION     0.18     0.29     5.85     0  02:55        0.29
  WS02003067           JUNCTION     0.48     0.69     6.01     0  02:54        0.69
  WS02003069           JUNCTION     0.23     0.42     5.01     0  02:56        0.42
  WS02003072           JUNCTION     0.29     0.49     4.86     0  02:56        0.49
  WS02003073           JUNCTION     0.16     0.29     4.36     0  02:57        0.29
  WS02004401           JUNCTION     0.56     0.87     6.87     0  02:52        0.87
  WS02004402           JUNCTION     0.59     0.89     6.85     0  02:52        0.89
  WS02004403           JUNCTION     0.62     0.91     6.84     0  02:52        0.91
  WS02004404           JUNCTION     0.69     1.00     6.85     0  02:52        0.99
  WS02004405           JUNCTION     0.68     0.96     6.81     0  02:52        0.95
  WS02004406           JUNCTION     0.70     0.95     6.78     0  02:53        0.95
  WS02004407           JUNCTION     0.15     0.29     6.61     0  02:53        0.29
  WS02004409           JUNCTION     0.34     0.66     6.43     0  02:53        0.66
  WS02004410           JUNCTION     0.37     0.67     6.39     0  02:54        0.67
  WS02004411           JUNCTION     0.40     0.68     6.36     0  02:54        0.68
  WS02004412           JUNCTION     0.42     0.69     6.33     0  02:54        0.69
  WS02004413           JUNCTION     0.59     0.85     6.32     0  02:54        0.85
  WS02006109           JUNCTION     0.59     2.00     8.61     0  02:16        2.00
  WS02006110           JUNCTION     0.60     2.76     9.34     0  02:16        2.76
  WS02006111           JUNCTION     0.15     1.67     8.37     0  00:00        0.56
  WS02006112           JUNCTION     0.70     2.68     8.56     0  00:00        1.29
  WS02006113           JUNCTION     0.23     1.50     8.40     0  00:00        0.45
  WS02006115           JUNCTION     0.43     1.69     7.83     0  00:00        0.86
  WS02006116           JUNCTION     0.52     1.11     7.15     0  00:00        0.84
  WS02006228           JUNCTION     0.58     1.64     8.29     0  00:00        1.02
  WS02006229           JUNCTION     0.55     1.31     8.00     0  00:00        1.19
  WS02006230           JUNCTION     0.53     1.47     8.22     0  02:15        1.16
  WS02006231           JUNCTION     0.35     1.25     8.37     0  02:01        0.90
  WS02006232           JUNCTION     0.47     1.51     8.54     0  03:10        1.45
  WS02006234           JUNCTION     0.39     1.70     8.85     0  02:17        1.70
  WS02006235           JUNCTION     0.42     2.00     9.16     0  02:17        2.00
  WS02006238           JUNCTION     0.45     2.12     9.26     0  03:01        2.12
  WS02006239           JUNCTION     0.41     2.03     9.24     0  03:01        2.03
  WS02006240           JUNCTION     0.38     2.08     9.37     0  03:01        2.08
  WS02006242           JUNCTION     0.44     1.55     8.82     0  02:17        1.55
  WS02006243           JUNCTION     0.36     1.48     8.90     0  02:17        1.48
  WS02006245           JUNCTION     0.36     1.56     9.04     0  02:17        1.56
  WS02006247           JUNCTION     0.38     1.47     8.97     0  02:17        1.47
  WS02006248           JUNCTION     0.34     1.10     8.69     0  02:15        1.10
  WS02006249           JUNCTION     0.37     1.09     8.69     0  02:01        1.09
  WS02006251           JUNCTION     0.37     1.35     9.02     0  02:01        1.13
  WS02006252           JUNCTION     0.28     1.50     9.74     0  00:20        0.76
  WS02006256           JUNCTION     0.87     2.35     9.28     0  00:10        2.35
  WSF200               JUNCTION     0.15     0.29     5.52     0  02:55        0.29
  YS02001580           JUNCTION     0.09     1.05     9.59     0  01:47        0.77
  YS02001583           JUNCTION     0.12     1.14     9.64     0  01:47        0.82
  YS02001586           JUNCTION     0.20     1.13     9.30     0  01:46        1.13
  YS02001590           JUNCTION     0.30     1.40     9.26     0  01:46        1.36
  YS02001593           JUNCTION     0.23     1.46     9.32     0  01:46        1.28
  YS02001596           JUNCTION     0.31     1.75     9.17     0  01:46        1.65
  YS02001600           JUNCTION     0.37     1.87     9.00     0  01:46        1.86
  YS02001601           JUNCTION     0.56     2.06     8.90     0  01:46        2.06
  YS02001602           JUNCTION     0.47     1.87     8.77     0  01:47        1.87
  YS02001605           JUNCTION     0.44     1.78     8.68     0  01:47        1.77
  YS02001607           JUNCTION     0.42     1.68     8.53     0  01:47        1.64
  YS02001610           JUNCTION     0.46     1.68     8.48     0  01:47        1.68
  YS02001613           JUNCTION     0.43     1.70     8.54     0  01:47        1.66
  YS02001616           JUNCTION     0.36     1.61     8.52     0  01:47        1.61
  YS02001619           JUNCTION     0.34     1.61     8.54     0  01:47        1.61
  YS02001622           JUNCTION     0.33     1.62     8.52     0  01:47        1.58
  YS02001625           JUNCTION     0.57     1.78     8.38     0  01:47        1.78
  YS02001629           JUNCTION     0.45     1.85     8.40     0  01:47        1.85
  YS02001633           JUNCTION     0.52     2.07     8.53     0  01:49        2.05
  YS02001641           JUNCTION     0.49     1.99     8.43     0  01:49        1.93
  YS02001644           JUNCTION     0.48     1.92     8.35     0  01:49        1.92
  YS02001647           JUNCTION     0.27     1.77     8.38     0  01:49        1.68
  YS02001649           JUNCTION     0.30     2.03     8.42     0  01:49        1.84
  YS02001652           JUNCTION     0.19     2.16     8.76     0  01:49        1.68
  YS02001655           JUNCTION     0.14     2.20     9.05     0  01:49        1.47
  YS02001658           JUNCTION     0.10     1.82     8.97     0  01:50        1.23
  YS02001661           JUNCTION     0.13     1.05     8.46     0  01:51        1.03
  YS02001664           JUNCTION     0.06     0.52     8.45     0  01:51        0.30
  YS02001745           JUNCTION     0.05     0.83     8.35     0  01:50        0.76
  YS02001748           JUNCTION     0.08     1.82     8.90     0  01:50        1.16
  YS02001751           JUNCTION     0.11     1.75     8.62     0  01:50        1.31
  YS02001754           JUNCTION     0.15     2.20     8.81     0  01:49        1.54
  YS02001757           JUNCTION     0.30     1.96     8.22     0  01:49        1.86
  YS02001759           JUNCTION     0.24     1.89     8.25     0  01:50        1.88
  YS02001762           JUNCTION     0.24     1.91     8.31     0  01:51        1.91
  YS02001765           JUNCTION     0.22     1.95     8.40     0  01:49        1.90
  YS02001767           JUNCTION     0.22     2.03     8.52     0  01:49        1.91
  YS02001770           JUNCTION     0.23     1.95     8.44     0  01:49        1.95
  YS02001774           JUNCTION     0.30     2.05     8.47     0  01:49        2.02
  YS02001779           JUNCTION     0.14     1.68     8.37     0  01:49        1.68
  YS02001783           JUNCTION     0.23     1.50     7.64     0  01:49        1.22
  YS02001784           JUNCTION     0.24     1.35     7.42     0  01:48        1.11
  YS02001786           JUNCTION     0.20     1.32     7.35     0  01:48        0.87
  YS02001788           JUNCTION     0.14     0.62     6.60     0  01:50        0.62
  YS02001790           JUNCTION     0.17     0.72     6.37     0  01:51        0.72
  YS02001791           JUNCTION     0.11     0.44     5.91     0  01:51        0.43
  YS02001793           JUNCTION     0.06     0.28     5.11     0  02:00        0.27
  YS02001882           JUNCTION     0.29     1.83     8.55     0  01:48        1.61
  YS02001884           JUNCTION     0.38     1.93     8.55     0  01:48        1.73
  YS02001887           JUNCTION     0.44     1.94     8.48     0  01:48        1.79
  YS02001890           JUNCTION     0.47     1.81     8.32     0  01:48        1.81
  YS02001895           JUNCTION     0.26     1.75     8.50     0  01:48        1.56
  YS02001898           JUNCTION     0.27     1.77     8.51     0  01:48        1.59
  YS02001901           JUNCTION     0.37     1.86     8.46     0  01:48        1.75
  YS02001904           JUNCTION     0.36     1.75     8.38     0  01:48        1.73
  YS02001907           JUNCTION     0.64     1.96     8.25     0  01:48        1.96
  YS02001910           JUNCTION     0.46     2.04     8.55     0  01:49        2.04
  YS02001915           JUNCTION     0.29     2.00     8.72     0  01:48        2.00
  YS02001918           JUNCTION     0.15     1.81     8.88     0  01:49        1.81
  YS02001920           JUNCTION     0.21     2.14     9.15     0  01:49        1.94
  YS02001923           JUNCTION     0.12     2.03     9.29     0  01:49        1.74
  YS02001926           JUNCTION     0.15     1.90     9.35     0  01:49        1.59
  YS02001929           JUNCTION     0.08     1.78     9.47     0  01:49        1.36
  YS02006553           JUNCTION     0.65     2.05     8.33     0  01:49        2.02
  YS02006556           JUNCTION     0.62     2.11     8.42     0  01:49        1.97
  YS02006558           JUNCTION     0.66     2.17     8.44     0  01:49        1.98
  YS02006561           JUNCTION     0.14     1.25     7.91     0  01:49        0.88
  YS02163301           JUNCTION     0.47     1.95     8.47     0  01:49        1.94
  YS02163601           JUNCTION     0.55     2.08     8.48     0  01:49        2.00
  YS02164001           JUNCTION     0.48     2.02     8.47     0  01:49        1.92
  CC-1                 OUTFALL      0.00     0.00     0.00     0  00:00        0.00
  CC-2                 OUTFALL      0.00     0.00     0.00     0  00:00        0.00
  JK-1                 OUTFALL      0.00     0.00     0.00     0  00:00        0.00
  JK-2                 OUTFALL      0.00     0.00     0.00     0  00:00        0.00
  WSC                  OUTFALL      0.16     0.29     0.96     0  02:57        0.29
  CC-storage           STORAGE      0.72     1.35     6.85     0  02:20        1.35
  JK-storage           STORAGE      1.56     4.24     5.04     0  02:00        4.15
  
  
  *******************
  Node Inflow Summary
  *******************
  
  -------------------------------------------------------------------------------------------------
                                  Maximum  Maximum                  Lateral       Total        Flow
                                  Lateral    Total  Time of Max      Inflow      Inflow     Balance
                                   Inflow   Inflow   Occurrence      Volume      Volume       Error
  Node                 Type           LPS      LPS  days hr:min    10^6 ltr    10^6 ltr     Percent
  -------------------------------------------------------------------------------------------------
  WS02003060           JUNCTION     16.53   539.10     0  02:55       0.476        3.81       0.055
  WS02003066           JUNCTION      0.00   522.06     0  02:55           0        3.33       0.039
  WS02003067           JUNCTION      0.00   521.80     0  02:54           0        3.34       0.120
  WS02003069           JUNCTION      0.32   539.50     0  02:55     0.00922        3.81       0.090
  WS02003072           JUNCTION      0.00   538.69     0  02:56           0        3.81       0.167
  WS02003073           JUNCTION      1.82   539.80     0  02:56      0.0524        3.86       0.130
  WS02004401           JUNCTION      0.00  1786.04     0  00:00           0        3.44       0.310
  WS02004402           JUNCTION      0.00  1248.69     0  00:01           0        3.43       0.312
  WS02004403           JUNCTION      0.00   929.44     0  00:01           0        3.42       0.307
  WS02004404           JUNCTION      0.00   877.02     0  00:01           0        3.41       0.278
  WS02004405           JUNCTION      0.00   827.31     0  00:01           0         3.4       0.326
  WS02004406           JUNCTION      0.00   768.45     0  00:02           0        3.39       0.625
  WS02004407           JUNCTION      0.00   530.22     0  02:53           0        3.37       0.026
  WS02004409           JUNCTION      0.00   529.73     0  02:53           0        3.37       0.068
  WS02004410           JUNCTION      0.00   527.17     0  02:53           0        3.36       0.121
  WS02004411           JUNCTION      0.00   525.38     0  02:53           0        3.36       0.156
  WS02004412           JUNCTION      0.00   523.88     0  02:54           0        3.36       0.208
  WS02004413           JUNCTION      0.00   522.58     0  02:54           0        3.35       0.390
  WS02006109           JUNCTION      0.00  1446.81     0  00:00           0        3.33      -0.265
  WS02006110           JUNCTION      0.00   588.70     0  03:01           0        3.31      -1.633
  WS02006111           JUNCTION      0.00  1180.41     0  00:00           0        3.37      -1.258
  WS02006112           JUNCTION      0.00  2307.30     0  00:00           0        3.41      -0.009
  WS02006113           JUNCTION      0.00   604.28     0  03:01           0        3.33      -1.137
  WS02006115           JUNCTION      0.00   953.54     0  00:00           0        3.38      -1.058
  WS02006116           JUNCTION      0.00  1264.47     0  00:00           0        3.42      -0.686
  WS02006228           JUNCTION      0.00   869.18     0  00:00           0        3.32      -0.072
  WS02006229           JUNCTION      0.00   574.16     0  03:01           0         3.3      -0.047
  WS02006230           JUNCTION     10.28   706.67     0  00:00       0.296        3.29       0.039
  WS02006231           JUNCTION      0.00   582.99     0  03:01           0        2.99      -0.001
  WS02006232           JUNCTION      0.00   579.68     0  03:01           0        2.98       0.167
  WS02006234           JUNCTION      0.00   567.11     0  02:45           0        2.97      -0.253
  WS02006235           JUNCTION      0.00   559.95     0  02:25           0        3.05       0.211
  WS02006238           JUNCTION      0.00   422.30     0  03:02           0        2.42      -0.293
  WS02006239           JUNCTION      0.00   422.28     0  03:02           0        2.37      -0.307
  WS02006240           JUNCTION      0.00   422.01     0  03:02           0        2.34      -0.015
  WS02006242           JUNCTION      0.00   421.45     0  03:02           0        2.33       0.011
  WS02006243           JUNCTION      0.00   421.66     0  03:02           0        2.31      -0.385
  WS02006245           JUNCTION      0.00   420.41     0  03:02           0        2.31       0.416
  WS02006247           JUNCTION      0.00   421.93     0  03:02           0        2.31      -0.064
  WS02006248           JUNCTION      0.00   422.34     0  03:02           0        2.31      -0.112
  WS02006249           JUNCTION      0.00   460.50     0  01:40           0        2.43       0.677
  WS02006251           JUNCTION      0.00   406.46     0  02:01           0        2.43       0.023
  WS02006252           JUNCTION      0.00   400.00     0  00:20           0        2.42      -0.491
  WS02006256           JUNCTION      0.00   300.00     0  00:10           0       0.892      -2.786
  WSF200               JUNCTION      0.00   522.19     0  02:55           0        3.33       0.011
  YS02001580           JUNCTION      0.00   189.74     0  01:47           0     0.00478       1.685
  YS02001583           JUNCTION      0.00   272.08     0  01:47           0      0.0149     -11.928
  YS02001586           JUNCTION    506.52   506.61     0  01:53        1.11        1.12       0.155
  YS02001590           JUNCTION      0.00   317.91     0  02:03           0       0.986      -0.058
  YS02001593           JUNCTION      0.00   317.93     0  02:05           0       0.986      -0.001
  YS02001596           JUNCTION      0.00   317.96     0  02:00           0       0.986      -0.013
  YS02001600           JUNCTION      0.00   317.92     0  02:04           0       0.986      -0.005
  YS02001601           JUNCTION    926.17  1243.61     0  01:51        1.49        2.48       0.010
  YS02001602           JUNCTION      0.00   578.85     0  01:47           0        1.77       0.016
  YS02001605           JUNCTION      0.00   578.80     0  01:47           0         1.7       0.016
  YS02001607           JUNCTION      0.00   578.79     0  01:47           0         1.7       0.098
  YS02001610           JUNCTION      0.00   541.74     0  01:47           0        1.71       0.113
  YS02001613           JUNCTION      0.00   541.13     0  01:47           0        1.47       0.096
  YS02001616           JUNCTION      0.00   535.46     0  01:47           0        1.47       0.000
  YS02001619           JUNCTION    878.52  1000.93     0  01:47        1.71        3.17      -0.018
  YS02001622           JUNCTION      0.00   949.72     0  01:47           0        3.17      -0.006
  YS02001625           JUNCTION      0.00   949.85     0  01:47           0        3.17       0.265
  YS02001629           JUNCTION      0.00   932.84     0  01:47           0        2.81       0.020
  YS02001633           JUNCTION    709.42  1427.52     0  01:48        1.12        3.91       0.077
  YS02001641           JUNCTION      0.00  1426.55     0  01:48           0         3.9       0.066
  YS02001644           JUNCTION    612.89  1946.81     0  01:48       0.921        4.82       0.062
  YS02001647           JUNCTION      0.00  1946.75     0  01:48           0        4.79       0.008
  YS02001649           JUNCTION      0.00  2249.00     0  01:49           0        5.67      -0.002
  YS02001652           JUNCTION      0.00   750.54     0  01:52           0       0.878      -0.134
  YS02001655           JUNCTION      0.00   748.83     0  01:52           0       0.879       0.058
  YS02001658           JUNCTION      0.00   746.88     0  01:52           0       0.878      -0.102
  YS02001661           JUNCTION      0.00   821.77     0  01:51           0       0.878       0.016
  YS02001664           JUNCTION    617.83   617.83     0  01:50       0.878       0.878      -0.009
  YS02001745           JUNCTION    391.89   500.99     0  01:50       0.505       0.506       0.313
  YS02001748           JUNCTION      0.00   644.73     0  01:50           0       0.508      -0.519
  YS02001751           JUNCTION      0.00   494.35     0  01:51           0       0.517       0.124
  YS02001754           JUNCTION      0.00   494.51     0  01:51           0       0.523      -0.301
  YS02001757           JUNCTION      0.00  3465.47     0  01:51           0           8       0.074
  YS02001759           JUNCTION    566.33  1370.13     0  01:50       0.736        1.81      -0.021
  YS02001762           JUNCTION      0.00   801.41     0  01:50           0        1.08      -0.001
  YS02001765           JUNCTION      0.00   795.67     0  01:50           0        1.08       0.002
  YS02001767           JUNCTION      0.00   791.12     0  01:50           0        1.08      -0.026
  YS02001770           JUNCTION    765.88   779.45     0  01:50        1.08        1.12      -0.037
  YS02001774           JUNCTION      0.00   552.09     0  01:49           0      0.0641       1.407
  YS02001779           JUNCTION      0.00   550.07     0  01:49           0      0.0231      -1.455
  YS02001783           JUNCTION      0.00  1156.17     0  01:49           0        2.78      -0.004
  YS02001784           JUNCTION      0.00  1156.40     0  01:49           0        2.78      -0.002
  YS02001786           JUNCTION      0.00  1156.19     0  01:49           0        2.78       0.007
  YS02001788           JUNCTION      0.00  1158.39     0  01:49           0        2.78       0.001
  YS02001790           JUNCTION      0.00  1168.52     0  01:50           0        2.78       0.018
  YS02001791           JUNCTION      0.00  1285.49     0  01:51           0        2.78      -0.026
  YS02001793           JUNCTION      0.00  1216.99     0  01:58           0        2.78       0.005
  YS02001882           JUNCTION      0.00   121.77     0  01:48           0      0.0124       1.888
  YS02001884           JUNCTION      0.00   172.98     0  01:48           0      0.0481       3.761
  YS02001887           JUNCTION    614.55   614.55     0  01:50       0.755       0.788       0.459
  YS02001890           JUNCTION      0.00   614.63     0  01:50           0       0.749       0.547
  YS02001895           JUNCTION      0.00   607.14     0  01:49           0       0.735       0.168
  YS02001898           JUNCTION      0.00   606.99     0  01:49           0       0.733      -0.117
  YS02001901           JUNCTION      0.00   605.98     0  01:48           0       0.734       0.335
  YS02001904           JUNCTION      0.00   606.02     0  01:48           0       0.738       0.289
  YS02001907           JUNCTION      0.00  1627.00     0  01:50           0         2.2       0.723
  YS02001910           JUNCTION      0.00  1088.65     0  01:50           0        1.47       0.404
  YS02001915           JUNCTION    625.42  1088.00     0  01:50       0.939        1.52       0.038
  YS02001918           JUNCTION      0.00   765.80     0  01:48           0       0.614      -0.066
  YS02001920           JUNCTION      0.00   718.38     0  01:49           0       0.588       0.044
  YS02001923           JUNCTION      0.00   969.43     0  01:49           0       0.571      -0.198
  YS02001926           JUNCTION      0.00  1213.34     0  01:49           0       0.551      -0.083
  YS02001929           JUNCTION    314.20   914.93     0  01:49       0.529       0.535      -0.093
  YS02006553           JUNCTION      0.00   793.31     0  02:02           0         1.8       0.606
  YS02006556           JUNCTION      0.00   794.15     0  02:02           0        1.81       0.382
  YS02006558           JUNCTION    767.92  1166.91     0  01:48        1.04        2.82       0.096
  YS02006561           JUNCTION      0.00  1170.11     0  01:48           0        2.78       0.001
  YS02163301           JUNCTION      0.00   881.65     0  02:10           0         2.8       0.043
  YS02163601           JUNCTION      0.00  1427.16     0  01:48           0         3.9       0.119
  YS02164001           JUNCTION      0.00  1427.01     0  01:48           0         3.9       0.051
  CC-1                 OUTFALL       0.00   683.00     0  00:05           0        3.89       0.000
  CC-2                 OUTFALL       0.00   683.00     0  00:05           0        2.54       0.000
  JK-1                 OUTFALL       0.00  1000.00     0  01:48           0        1.51       0.000
  JK-2                 OUTFALL       0.00  1000.00     0  00:15           0        0.51       0.000
  WSC                  OUTFALL       0.00   538.40     0  02:57           0        3.85       0.000
  CC-storage           STORAGE       0.00  3466.12     0  01:51           0        10.2      -0.304
  JK-storage           STORAGE       0.00  1264.04     0  01:54           0        2.93      -0.596
  
  
  **********************
  Node Surcharge Summary
  **********************
  
  Surcharging occurs when water rises above the top of the highest conduit.
  ---------------------------------------------------------------------
                                               Max. Height   Min. Depth
                                   Hours       Above Crown    Below Rim
  Node                 Type      Surcharged         Meters       Meters
  ---------------------------------------------------------------------
  WS02006109           JUNCTION        1.23          1.176        0.644
  WS02006110           JUNCTION        0.33          1.850        0.000
  WS02006111           JUNCTION        0.01          0.856        1.014
  WS02006112           JUNCTION        0.41          1.680        0.000
  WS02006113           JUNCTION        0.01          0.705        1.225
  WS02006115           JUNCTION        0.01          0.682        1.568
  WS02006116           JUNCTION        0.01          0.053        2.237
  WS02006228           JUNCTION        1.22          0.810        1.390
  WS02006229           JUNCTION        1.23          0.510        1.940
  WS02006230           JUNCTION        0.34          0.391        1.179
  WS02006231           JUNCTION        0.42          0.535        0.995
  WS02006232           JUNCTION        1.23          0.805        0.675
  WS02006234           JUNCTION        0.72          0.978        0.262
  WS02006235           JUNCTION        1.20          1.290        0.000
  WS02006238           JUNCTION        1.22          1.399        0.031
  WS02006239           JUNCTION        1.21          1.290        0.000
  WS02006240           JUNCTION        1.21          1.366        0.024
  WS02006242           JUNCTION        1.22          0.820        0.000
  WS02006243           JUNCTION        1.18          0.770        0.000
  WS02006245           JUNCTION        1.16          0.850        0.000
  WS02006247           JUNCTION        1.16          0.760        0.000
  WS02006248           JUNCTION        1.16          0.380        0.000
  WS02006249           JUNCTION        1.15          0.390        0.000
  WS02006251           JUNCTION        0.46          0.325        0.855
  WS02006252           JUNCTION        1.40          1.100        0.000
  WS02006256           JUNCTION        5.46          2.050        0.000
  YS02001580           JUNCTION        0.39          0.450        0.000
  YS02001583           JUNCTION        0.39          0.500        0.000
  YS02001586           JUNCTION        0.49          0.510        0.000
  YS02001590           JUNCTION        0.55          0.750        0.000
  YS02001593           JUNCTION        0.55          0.840        0.000
  YS02001596           JUNCTION        0.63          1.021        0.049
  YS02001600           JUNCTION        0.74          1.190        0.000
  YS02001601           JUNCTION        1.07          1.440        0.000
  YS02001602           JUNCTION        0.95          1.270        0.000
  YS02001605           JUNCTION        0.90          1.180        0.000
  YS02001607           JUNCTION        0.49          0.680        0.000
  YS02001610           JUNCTION        0.51          0.680        0.000
  YS02001613           JUNCTION        0.49          0.700        0.000
  YS02001616           JUNCTION        0.45          0.610        0.000
  YS02001619           JUNCTION        0.44          0.610        0.000
  YS02001622           JUNCTION        0.44          0.620        0.000
  YS02001625           JUNCTION        0.59          0.780        0.000
  YS02001629           JUNCTION        0.38          0.470        0.000
  YS02001633           JUNCTION        0.60          1.053        0.007
  YS02001641           JUNCTION        0.52          0.995        0.105
  YS02001644           JUNCTION        0.48          0.920        0.000
  YS02001647           JUNCTION        0.32          0.772        0.128
  YS02001649           JUNCTION        0.38          1.032        0.018
  YS02001652           JUNCTION        0.26          1.130        0.000
  YS02001655           JUNCTION        0.12          1.200        0.000
  YS02001658           JUNCTION        0.03          0.824        0.476
  YS02001748           JUNCTION        0.01          0.741        0.449
  YS02001751           JUNCTION        0.06          0.746        0.454
  YS02001754           JUNCTION        0.13          1.150        0.000
  YS02001757           JUNCTION        0.41          0.960        0.250
  YS02001759           JUNCTION        0.33          0.886        0.324
  YS02001762           JUNCTION        0.31          0.907        0.243
  YS02001765           JUNCTION        0.28          0.952        0.148
  YS02001767           JUNCTION        0.26          1.030        0.000
  YS02001770           JUNCTION        0.24          0.920        0.000
  YS02001774           JUNCTION        0.30          1.050        0.000
  YS02001779           JUNCTION        0.15          0.680        0.000
  YS02001783           JUNCTION        0.35          0.699        0.901
  YS02001784           JUNCTION        0.33          0.553        0.937
  YS02001786           JUNCTION        0.25          0.519        0.911
  YS02001882           JUNCTION        0.31          0.830        0.000
  YS02001884           JUNCTION        0.32          0.870        0.000
  YS02001887           JUNCTION        0.34          0.891        0.059
  YS02001890           JUNCTION        0.35          0.760        0.000
  YS02001895           JUNCTION        0.30          0.750        0.000
  YS02001898           JUNCTION        0.29          0.740        0.000
  YS02001901           JUNCTION        0.33          0.856        0.014
  YS02001904           JUNCTION        0.32          0.746        0.104
  YS02001907           JUNCTION        0.49          0.950        0.000
  YS02001910           JUNCTION        0.37          1.042        0.058
  YS02001915           JUNCTION        0.31          1.000        0.000
  YS02001918           JUNCTION        0.24          0.810        0.000
  YS02001920           JUNCTION        0.25          1.140        0.000
  YS02001923           JUNCTION        0.01          0.820        0.000
  YS02001926           JUNCTION        0.02          0.900        0.000
  YS02001929           JUNCTION        0.01          0.780        0.000
  YS02006553           JUNCTION        0.51          1.047        0.143
  YS02006556           JUNCTION        0.43          1.066        0.284
  YS02006558           JUNCTION        0.43          1.073        0.327
  YS02006561           JUNCTION        0.21          0.450        0.700
  YS02163301           JUNCTION        0.58          0.952        0.078
  YS02163601           JUNCTION        0.62          1.080        0.000
  YS02164001           JUNCTION        0.53          1.016        0.084
  
  
  *********************
  Node Flooding Summary
  *********************
  
  Flooding refers to all water that overflows a node, whether it ponds or not.
  --------------------------------------------------------------------------
                                                             Total   Maximum
                                 Maximum   Time of Max       Flood    Ponded
                        Hours       Rate    Occurrence      Volume     Depth
  Node                 Flooded       LPS   days hr:min    10^6 ltr    Meters
  --------------------------------------------------------------------------
  WS02006110              0.01     47.56      0  02:16       0.000     0.000
  WS02006112              0.01   1405.86      0  00:00       0.047     0.000
  WS02006235              0.01      3.05      0  03:01       0.000     0.000
  WS02006239              0.01      1.58      0  03:01       0.000     0.000
  WS02006242              0.01     15.23      0  03:01       0.000     0.000
  WS02006243              0.01      1.35      0  03:01       0.000     0.000
  WS02006245              0.01      0.64      0  03:01       0.000     0.000
  WS02006247              0.01      0.64      0  03:01       0.000     0.000
  WS02006248              0.01     25.39      0  03:01       0.000     0.000
  WS02006249              0.44    111.96      0  03:01       0.105     0.000
  WS02006252              0.01      0.91      0  00:20       0.000     0.000
  WS02006256              0.83    290.33      0  03:10       0.264     0.000
  YS02001580              0.01    151.12      0  01:47       0.001     0.000
  YS02001583              0.01    243.30      0  01:47       0.000     0.000
  YS02001586              0.30    189.17      0  01:53       0.122     0.000
  YS02001590              0.01    108.50      0  01:46       0.000     0.000
  YS02001593              0.01     15.91      0  01:46       0.000     0.000
  YS02001600              0.01      4.61      0  01:46       0.000     0.000
  YS02001601              0.43    845.80      0  01:51       0.709     0.000
  YS02001602              0.32     61.92      0  02:00       0.065     0.000
  YS02001605              0.01      6.64      0  01:47       0.000     0.000
  YS02001607              0.01     80.47      0  01:47       0.000     0.000
  YS02001610              0.28    372.17      0  01:53       0.241     0.000
  YS02001613              0.01     31.92      0  01:47       0.000     0.000
  YS02001616              0.01    189.69      0  01:47       0.001     0.000
  YS02001619              0.01    308.57      0  01:47       0.001     0.000
  YS02001622              0.01    273.15      0  01:47       0.001     0.000
  YS02001625              0.24    942.63      0  01:52       0.362     0.000
  YS02001629              0.06    384.60      0  01:47       0.013     0.000
  YS02001644              0.03    224.51      0  01:51       0.017     0.000
  YS02001652              0.01    231.05      0  01:49       0.000     0.000
  YS02001655              0.01    455.98      0  01:49       0.000     0.000
  YS02001754              0.01    259.80      0  01:49       0.000     0.000
  YS02001767              0.01    126.54      0  01:49       0.000     0.000
  YS02001770              0.01    315.88      0  01:49       0.001     0.000
  YS02001774              0.01     57.21      0  01:49       0.000     0.000
  YS02001779              0.02    522.41      0  01:49       0.007     0.000
  YS02001882              0.01     94.96      0  01:48       0.000     0.000
  YS02001884              0.01     15.79      0  01:48       0.000     0.000
  YS02001890              0.06    186.39      0  01:48       0.010     0.000
  YS02001895              0.01    244.81      0  01:48       0.000     0.000
  YS02001898              0.01    343.62      0  01:48       0.001     0.000
  YS02001907              0.19   1233.79      0  01:50       0.398     0.000
  YS02001915              0.01    246.36      0  01:48       0.000     0.000
  YS02001918              0.01    354.73      0  01:49       0.003     0.000
  YS02001920              0.01     41.15      0  01:49       0.000     0.000
  YS02001923              0.01    485.37      0  01:49       0.003     0.000
  YS02001926              0.01    872.95      0  01:49       0.003     0.000
  YS02001929              0.01    775.82      0  01:49       0.002     0.000
  YS02163601              0.01      5.66      0  01:49       0.000     0.000
  
  
  **********************
  Storage Volume Summary
  **********************
  
  --------------------------------------------------------------------------------------------------
                         Average     Avg  Evap Exfil       Maximum     Max    Time of Max    Maximum
                          Volume    Pcnt  Pcnt  Pcnt        Volume    Pcnt     Occurrence    Outflow
  Storage Unit           1000 m3    Full  Loss  Loss       1000 m3    Full    days hr:min        LPS
  --------------------------------------------------------------------------------------------------
  CC-storage               2.002      31     0     0         3.770      59       0  02:20    1766.00
  JK-storage               0.078      27     0     0         0.213      73       0  02:00    2300.00
  
  
  ***********************
  Outfall Loading Summary
  ***********************
  
  -----------------------------------------------------------
                         Flow       Avg       Max       Total
                         Freq      Flow      Flow      Volume
  Outfall Node           Pcnt       LPS       LPS    10^6 ltr
  -----------------------------------------------------------
  CC-1                  38.13    683.00    683.00       3.890
  CC-2                  26.68    683.00    683.00       2.538
  JK-1                   9.67   1000.00   1000.00       1.511
  JK-2                   3.53   1000.00   1000.00       0.510
  WSC                   99.99    207.78    538.40       3.851
  -----------------------------------------------------------
  System                35.60   3573.78    538.40      12.300
  
  
  ********************
  Link Flow Summary
  ********************
  
  -----------------------------------------------------------------------------
                                 Maximum  Time of Max   Maximum    Max/    Max/
                                  |Flow|   Occurrence   |Veloc|    Full    Full
  Link                 Type          LPS  days hr:min     m/sec    Flow   Depth
  -----------------------------------------------------------------------------
  1                    CONDUIT    538.40     0  02:57      2.80    0.19    0.29
  WS02003060WS02003069 CONDUIT    539.18     0  02:55      1.63    0.21    0.33
  WS02003066WSF200     CONDUIT    522.19     0  02:55      2.83    0.09    0.22
  WS02003067WS02003066 CONDUIT    522.06     0  02:55      1.19    0.17    0.41
  WS02003069WS02003072 CONDUIT    538.69     0  02:56      1.36    0.26    0.38
  WS02003072WS02003073 CONDUIT    537.98     0  02:56      1.42    1.16    0.37
  WS02004401WS02004402 CONDUIT   1248.69     0  00:01      2.52    1.50    0.88
  WS02004402WS02004403 CONDUIT    929.44     0  00:01      2.21    1.34    0.90
  WS02004403WS02004404 CONDUIT    877.02     0  00:01      2.01    0.63    0.95
  WS02004404WS02004405 CONDUIT    827.31     0  00:01      2.30    8.11    0.97
  WS02004405WS02004406 CONDUIT    768.45     0  00:02      2.19    1.52    0.96
  WS02004406WS02004407 CONDUIT    530.22     0  02:53      1.03    0.24    0.62
  WS02004407WS02004409 CONDUIT    529.73     0  02:53      2.06    0.19    0.47
  WS02004409WS02004410 CONDUIT    527.17     0  02:53      1.39    0.68    0.66
  WS02004410WS02004411 CONDUIT    525.38     0  02:53      1.32    0.72    0.68
  WS02004411WS02004412 CONDUIT    523.88     0  02:54      1.28    0.74    0.69
  WS02004412WS02004413 CONDUIT    522.58     0  02:54      1.25    0.35    0.77
  WS02004413WS02003067 CONDUIT    521.80     0  02:54      1.09    0.22    0.59
  WS02006109WS02006110 CONDUIT   1446.81     0  00:00      2.88    2.78    1.00
  WS02006110WS02006113 CONDUIT    604.28     0  03:01      1.44    0.55    1.00
  WS02006111WS02006112 CONDUIT   2307.30     0  00:00      9.18    1.10    1.00
  WS02006112WS02006115 CONDUIT    953.54     0  00:00      1.24    0.56    1.00
  WS02006113WS02006111 CONDUIT   1180.41     0  00:00      2.49    1.41    1.00
  WS02006115WS02006116 CONDUIT   1264.47     0  00:00      1.74    1.62    1.00
  WS02006116WS02004401 CONDUIT   1786.04     0  00:00      2.94    2.46    0.86
  WS02006228WS02006109 CONDUIT    869.18     0  00:00      1.91    3.80    1.00
  WS02006229WS02006228 CONDUIT    576.43     0  03:01      1.15    1.91    1.00
  WS02006230WS02006229 CONDUIT    696.39     0  00:00      1.89   15.50    1.00
  WS02006231WS02006230 CONDUIT    578.81     0  02:35      1.91    8.78    1.00
  WS02006232WS02006231 CONDUIT    582.99     0  03:01      1.80    1.22    1.00
  WS02006234WS02006232 CONDUIT    579.68     0  03:01      1.51    1.17    1.00
  WS02006235WS02006234 CONDUIT    567.11     0  02:45      1.47    5.98    1.00
  WS02006238WS02006235 CONDUIT    422.82     0  02:05      1.34    0.94    1.00
  WS02006239WS02006238 CONDUIT    422.30     0  03:02      1.10    1.35    1.00
  WS02006240WS02006239 CONDUIT    422.28     0  03:02      1.22    1.33    1.00
  WS02006242WS02006240 CONDUIT    422.01     0  03:02      1.13    1.68    1.00
  WS02006243WS02006242 CONDUIT    421.45     0  03:02      1.29    0.90    1.00
  WS02006245WS02006243 CONDUIT    421.66     0  03:02      1.35    1.25    1.00
  WS02006247WS02006245 CONDUIT    420.41     0  03:02      1.39    3.33    1.00
  WS02006248WS02006247 CONDUIT    421.93     0  03:02      1.43    0.92    1.00
  WS02006249WS02006248 CONDUIT    422.34     0  03:02      1.40    2.31    1.00
  WS02006251WS02006249 CONDUIT    460.50     0  01:40      1.79    1.33    1.00
  WS02006252WS02006251 CONDUIT    406.46     0  02:01     17.50    1.49    1.00
  WS02006256WS02006235 CONDUIT    288.42     0  00:10      4.19    3.05    1.00
  WSF200WS02003060     CONDUIT    522.57     0  02:55      2.05    0.12    0.28
  YS02001580YS02001583 CONDUIT    189.74     0  01:47      0.94    0.74    1.00
  YS02001583YS02001586 CONDUIT    218.59     0  01:47      0.97    0.33    1.00
  YS02001586YS02001590 CONDUIT    317.91     0  02:03      1.30    0.56    1.00
  YS02001590YS02001593 CONDUIT    317.93     0  02:05      1.12    2.00    1.00
  YS02001593YS02001596 CONDUIT    317.96     0  02:00      1.75    0.50    1.00
  YS02001596YS02001600 CONDUIT    317.92     0  02:04      1.21    0.62    1.00
  YS02001600YS02001601 CONDUIT    317.81     0  01:51      1.12    0.55    1.00
  YS02001601YS02001602 CONDUIT    578.85     0  01:47      2.05    2.09    1.00
  YS02001602YS02001605 CONDUIT    578.80     0  01:47      2.05   12.25    1.00
  YS02001605YS02001607 CONDUIT    578.79     0  01:47      2.05    3.17    1.00
  YS02001607YS02001610 CONDUIT    541.74     0  01:47      0.71    0.52    1.00
  YS02001610YS02001613 CONDUIT    541.13     0  01:47      0.69    0.62    1.00
  YS02001613YS02001616 CONDUIT    535.46     0  01:47      0.68    0.46    1.00
  YS02001616YS02001619 CONDUIT    501.50     0  02:12      0.67    0.87    1.00
  YS02001619YS02001622 CONDUIT    949.72     0  01:47      1.29    1.40    1.00
  YS02001622YS02001625 CONDUIT    949.85     0  01:47      1.21    0.51    1.00
  YS02001625YS02001629 CONDUIT    932.84     0  01:47      1.19    0.44    1.00
  YS02001629YS02163301 CONDUIT    881.65     0  02:10      1.12    1.09    1.00
  YS02001633YS02163601 CONDUIT   1427.16     0  01:48      1.82    1.50    1.00
  YS02001641YS02001644 CONDUIT   1426.21     0  01:48      1.82    4.61    1.00
  YS02001644YS02001647 CONDUIT   1946.75     0  01:48      2.48    1.14    1.00
  YS02001647YS02001649 CONDUIT   1966.42     0  01:48      2.50    1.04    1.00
  YS02001649YS02001757 CONDUIT   2247.74     0  01:49      2.86    1.36    1.00
  YS02001652YS02001649 CONDUIT    752.86     0  01:52      0.96    0.37    1.00
  YS02001655YS02001652 CONDUIT    750.54     0  01:52      1.49    0.36    1.00
  YS02001658YS02001655 CONDUIT    748.83     0  01:52      2.07    0.32    1.00
  YS02001661YS02001658 CONDUIT    746.88     0  01:52      2.48    0.29    0.99
  YS02001664YS02001661 CONDUIT    821.77     0  01:51      2.48    0.26    0.72
  YS02001745YS02001748 CONDUIT    633.05     0  01:50      2.37    0.24    0.88
  YS02001748YS02001751 CONDUIT    494.35     0  01:51      1.92    0.25    1.00
  YS02001751YS02001754 CONDUIT    494.51     0  01:51      1.57    0.24    1.00
  YS02001754YS02001757 CONDUIT    495.26     0  01:51      0.63    0.20    1.00
  YS02001757CaochengTiaoxuchi CONDUIT   3466.12     0  01:51      5.00    1.50    1.00
  YS02001759YS02001757 CONDUIT   1373.26     0  01:50      1.75    0.98    1.00
  YS02001762YS02001759 CONDUIT    806.58     0  01:50      1.03    0.93    1.00
  YS02001765YS02001762 CONDUIT    801.41     0  01:50      1.02    0.75    1.00
  YS02001767YS02001765 CONDUIT    795.67     0  01:50      1.01    1.00    1.00
  YS02001770YS02001767 CONDUIT    791.12     0  01:50      1.01    3.13    1.00
  YS02001774YS02001770 CONDUIT    552.09     0  01:49      0.70    0.35    1.00
  YS02001779YS02001774 CONDUIT    550.07     0  01:49      0.70    0.28    1.00
  YS02001783YS02001784 CONDUIT   1156.40     0  01:49      2.30    1.59    1.00
  YS02001784YS02001785 CONDUIT   1156.19     0  01:49      2.30    2.69    1.00
  YS02001786YS02001788 CONDUIT   1158.39     0  01:49      2.48    2.23    0.89
  YS02001788YS02001790 CONDUIT   1168.52     0  01:50      2.71    0.86    0.84
  YS02001790YS02001791 CONDUIT   1285.49     0  01:51      3.42    1.40    0.70
  YS02001791YS02001793 CONDUIT   1216.99     0  01:58      6.62    0.52    0.43
  YS02001793JiankangQianchi CONDUIT   1264.04     0  01:54      2.53    0.10    0.64
  YS02001882YS02001884 CONDUIT    121.77     0  01:48      0.16    0.14    1.00
  YS02001884YS02001887 CONDUIT    172.98     0  01:48      0.22    0.23    1.00
  YS02001887YS02001890 CONDUIT    614.63     0  01:50      0.78    1.05    1.00
  YS02001890YS02001895 CONDUIT    607.14     0  01:49      0.77    0.28    1.00
  YS02001895YS02001898 CONDUIT    606.99     0  01:49      0.77    1.05    1.00
  YS02001898YS02001901 CONDUIT    605.98     0  01:48      0.77    0.39    1.00
  YS02001901YS02001904 CONDUIT    606.02     0  01:48      0.77    0.94    1.00
  YS02001904YS02001907 CONDUIT    604.45     0  01:49      0.77    0.21    1.00
  YS02001907YS02006553 CONDUIT    793.31     0  02:02      0.88    0.93    1.00
  YS02001910YS02001907 CONDUIT   1088.92     0  01:50      1.39    0.61    1.00
  YS02001915YS02001910 CONDUIT   1088.65     0  01:50      1.39    0.54    1.00
  YS02001918YS02001915 CONDUIT    765.80     0  01:48      0.98    0.42    1.00
  YS02001920YS02001918 CONDUIT    718.38     0  01:49      0.91    0.69    1.00
  YS02001923YS02001920 CONDUIT    731.63     0  01:49      0.98    0.33    1.00
  YS02001926YS02001923 CONDUIT    973.49     0  01:49      1.39    1.39    1.00
  YS02001929YS02001926 CONDUIT    626.99     0  01:49      1.25    0.30    1.00
  YS02006553YS02006556 CONDUIT    794.15     0  02:02      1.01    0.68    1.00
  YS02006556YS02006558 CONDUIT    796.84     0  02:02      1.01    0.63    1.00
  YS02006558YS02006561 CONDUIT   1170.11     0  01:48      4.14    2.59    1.00
  YS02006561YS02001783 CONDUIT   1156.17     0  01:49      2.30    0.60    1.00
  YS02163301YS02001633 CONDUIT    881.02     0  02:10      1.12    0.83    1.00
  YS02163601YS02164001 CONDUIT   1427.01     0  01:48      1.82    1.26    1.00
  YS02164001YS02001641 CONDUIT   1426.55     0  01:48      1.82    1.95    1.00
  CC-R1                PUMP       683.00     0  00:05              1.00
  CC-R2                PUMP       683.00     0  00:05              1.00
  CC-S1                PUMP       200.00     0  00:15              1.00
  CC-S2                PUMP       200.00     0  00:20              1.00
  JK-R1                PUMP      1000.00     0  01:48              1.00
  JK-R2                PUMP      1000.00     0  00:15              1.00
  JK-S                 PUMP       300.00     0  00:10              1.00
  
  
  ***************************
  Flow Classification Summary
  ***************************
  
  -------------------------------------------------------------------------------------
                      Adjusted    ---------- Fraction of Time in Flow Class ---------- 
                       /Actual         Up    Down  Sub   Sup   Up    Down  Norm  Inlet 
  Conduit               Length    Dry  Dry   Dry   Crit  Crit  Crit  Crit  Ltd   Ctrl  
  -------------------------------------------------------------------------------------
  1                       1.00   0.00  0.00  0.00  0.00  1.00  0.00  0.00  0.56  0.00
  WS02003060WS02003069    1.00   0.00  0.00  0.00  0.96  0.04  0.00  0.00  0.79  0.00
  WS02003066WSF200        1.00   0.01  0.00  0.00  0.00  0.99  0.00  0.00  0.91  0.00
  WS02003067WS02003066    1.00   0.01  0.00  0.00  0.99  0.00  0.00  0.00  0.00  0.00
  WS02003069WS02003072    1.00   0.00  0.00  0.00  1.00  0.00  0.00  0.00  0.82  0.00
  WS02003072WS02003073    1.00   0.00  0.00  0.00  0.00  0.00  0.00  1.00  0.00  0.00
  WS02004401WS02004402    1.00   0.00  0.00  0.00  1.00  0.00  0.00  0.00  0.00  0.00
  WS02004402WS02004403    1.00   0.00  0.00  0.00  1.00  0.00  0.00  0.00  0.00  0.00
  WS02004403WS02004404    1.00   0.00  0.00  0.00  1.00  0.00  0.00  0.00  0.00  0.00
  WS02004404WS02004405    1.00   0.00  0.00  0.00  1.00  0.00  0.00  0.00  0.01  0.00
  WS02004405WS02004406    1.00   0.00  0.00  0.00  1.00  0.00  0.00  0.00  0.00  0.00
  WS02004406WS02004407    1.00   0.00  0.00  0.00  1.00  0.00  0.00  0.00  0.00  0.00
  WS02004407WS02004409    1.00   0.00  0.00  0.00  0.99  0.01  0.00  0.00  0.99  0.00
  WS02004409WS02004410    1.00   0.00  0.00  0.00  1.00  0.00  0.00  0.00  0.00  0.00
  WS02004410WS02004411    1.00   0.00  0.00  0.00  1.00  0.00  0.00  0.00  0.00  0.00
  WS02004411WS02004412    1.00   0.00  0.00  0.00  1.00  0.00  0.00  0.00  0.00  0.00
  WS02004412WS02004413    1.00   0.01  0.00  0.00  0.99  0.00  0.00  0.00  0.00  0.00
  WS02004413WS02003067    1.00   0.01  0.00  0.00  0.00  0.00  0.99  0.00  0.00  0.00
  WS02006109WS02006110    1.00   0.00  0.00  0.00  1.00  0.00  0.00  0.00  0.00  0.00
  WS02006110WS02006113    1.00   0.00  0.00  0.00  1.00  0.00  0.00  0.00  0.00  0.00
  WS02006111WS02006112    1.00   0.00  0.00  0.00  1.00  0.00  0.00  0.00  1.00  0.00
  WS02006112WS02006115    1.00   0.00  0.00  0.00  1.00  0.00  0.00  0.00  0.00  0.00
  WS02006113WS02006111    1.00   0.00  0.00  0.00  0.00  1.00  0.00  0.00  0.10  0.00
  WS02006115WS02006116    1.00   0.00  0.00  0.00  1.00  0.00  0.00  0.00  0.00  0.00
  WS02006116WS02004401    1.00   0.00  0.00  0.00  1.00  0.00  0.00  0.00  0.00  0.00
  WS02006228WS02006109    1.00   0.00  0.00  0.00  1.00  0.00  0.00  0.00  0.00  0.00
  WS02006229WS02006228    1.00   0.00  0.00  0.00  1.00  0.00  0.00  0.00  0.00  0.00
  WS02006230WS02006229    1.00   0.00  0.00  0.00  1.00  0.00  0.00  0.00  0.02  0.00
  WS02006231WS02006230    1.00   0.00  0.00  0.00  0.30  0.00  0.70  0.00  0.00  0.00
  WS02006232WS02006231    1.00   0.00  0.00  0.00  0.99  0.00  0.00  0.00  0.00  0.00
  WS02006234WS02006232    1.00   0.00  0.00  0.00  1.00  0.00  0.00  0.00  0.13  0.00
  WS02006235WS02006234    1.00   0.00  0.00  0.00  0.82  0.00  0.17  0.00  0.00  0.00
  WS02006238WS02006235    1.00   0.00  0.00  0.00  1.00  0.00  0.00  0.00  0.00  0.00
  WS02006239WS02006238    1.00   0.00  0.00  0.00  1.00  0.00  0.00  0.00  0.32  0.00
  WS02006240WS02006239    1.00   0.01  0.00  0.00  0.72  0.00  0.00  0.26  0.03  0.00
  WS02006242WS02006240    1.00   0.02  0.00  0.00  0.98  0.00  0.00  0.00  0.00  0.00
  WS02006243WS02006242    1.00   0.02  0.00  0.00  0.98  0.00  0.00  0.00  0.66  0.00
  WS02006245WS02006243    1.00   0.02  0.00  0.00  0.82  0.00  0.00  0.16  0.01  0.00
  WS02006247WS02006245    1.00   0.02  0.00  0.00  0.93  0.00  0.00  0.04  0.00  0.00
  WS02006248WS02006247    1.00   0.03  0.00  0.00  0.93  0.00  0.00  0.05  0.52  0.00
  WS02006249WS02006248    1.00   0.02  0.00  0.00  0.59  0.00  0.39  0.00  0.00  0.00
  WS02006251WS02006249    1.00   0.02  0.01  0.00  0.96  0.01  0.00  0.00  0.65  0.00
  WS02006252WS02006251    1.00   0.02  0.40  0.00  0.09  0.00  0.50  0.00  0.00  0.00
  WS02006256WS02006235    1.00   0.00  0.00  0.00  0.98  0.02  0.00  0.00  0.01  0.00
  WSF200WS02003060        1.00   0.00  0.01  0.00  0.35  0.64  0.00  0.00  0.76  0.00
  YS02001580YS02001583    1.00   0.21  0.53  0.00  0.27  0.00  0.00  0.00  0.71  0.00
  YS02001583YS02001586    1.00   0.32  0.25  0.00  0.43  0.00  0.01  0.00  0.71  0.00
  YS02001586YS02001590    1.00   0.13  0.00  0.00  0.60  0.03  0.00  0.24  0.32  0.00
  YS02001590YS02001593    1.00   0.13  0.00  0.00  0.17  0.00  0.69  0.00  0.00  0.00
  YS02001593YS02001596    1.00   0.14  0.00  0.00  0.19  0.01  0.00  0.67  0.01  0.00
  YS02001596YS02001600    1.00   0.14  0.00  0.00  0.26  0.03  0.00  0.57  0.05  0.00
  YS02001600YS02001601    1.00   0.13  0.00  0.00  0.86  0.00  0.00  0.00  0.64  0.00
  YS02001601YS02001602    1.00   0.13  0.01  0.00  0.86  0.00  0.00  0.00  0.00  0.00
  YS02001602YS02001605    1.00   0.14  0.00  0.00  0.86  0.00  0.00  0.00  0.00  0.00
  YS02001605YS02001607    1.00   0.14  0.00  0.00  0.86  0.00  0.00  0.00  0.00  0.00
  YS02001607YS02001610    1.00   0.14  0.00  0.00  0.86  0.00  0.00  0.00  0.02  0.00
  YS02001610YS02001613    1.00   0.13  0.00  0.00  0.87  0.00  0.00  0.00  0.01  0.00
  YS02001613YS02001616    1.00   0.13  0.00  0.00  0.87  0.00  0.00  0.00  0.01  0.00
  YS02001616YS02001619    1.00   0.13  0.00  0.00  0.87  0.00  0.00  0.00  0.00  0.00
  YS02001619YS02001622    1.00   0.13  0.00  0.00  0.87  0.00  0.00  0.00  0.36  0.00
  YS02001622YS02001625    1.00   0.13  0.00  0.00  0.87  0.00  0.00  0.00  0.05  0.00
  YS02001625YS02001629    1.00   0.13  0.03  0.00  0.21  0.00  0.63  0.00  0.00  0.00
  YS02001629YS02163301    1.00   0.15  0.01  0.00  0.85  0.00  0.00  0.00  0.00  0.00
  YS02001633YS02163601    1.00   0.14  0.00  0.00  0.86  0.00  0.00  0.00  0.02  0.00
  YS02001641YS02001644    1.00   0.13  0.00  0.00  0.87  0.00  0.00  0.00  0.00  0.00
  YS02001644YS02001647    1.00   0.13  0.03  0.00  0.84  0.00  0.00  0.00  0.00  0.00
  YS02001647YS02001649    1.00   0.14  0.02  0.00  0.43  0.41  0.00  0.00  0.60  0.00
  YS02001649YS02001757    1.00   0.00  0.14  0.00  0.45  0.41  0.00  0.00  0.20  0.00
  YS02001652YS02001649    1.00   0.14  0.00  0.00  0.84  0.02  0.00  0.00  0.65  0.00
  YS02001655YS02001652    1.00   0.14  0.00  0.00  0.24  0.02  0.00  0.60  0.06  0.00
  YS02001658YS02001655    1.00   0.14  0.00  0.00  0.46  0.40  0.00  0.00  0.73  0.00
  YS02001661YS02001658    1.00   0.14  0.00  0.00  0.31  0.54  0.00  0.00  0.76  0.00
  YS02001664YS02001661    1.00   0.13  0.00  0.00  0.67  0.20  0.00  0.00  0.86  0.00
  YS02001745YS02001748    1.00   0.13  0.00  0.00  0.07  0.01  0.00  0.78  0.04  0.00
  YS02001748YS02001751    1.00   0.13  0.00  0.00  0.58  0.29  0.00  0.00  0.69  0.00
  YS02001751YS02001754    1.00   0.13  0.00  0.00  0.18  0.01  0.00  0.67  0.02  0.00
  YS02001754YS02001757    1.00   0.00  0.13  0.00  0.86  0.01  0.00  0.00  0.74  0.00
  YS02001757CaochengTiaoxuchi    1.00   0.00  0.00  0.00  0.92  0.08  0.00  0.00  0.83  0.00
  YS02001759YS02001757    1.00   0.00  0.13  0.00  0.86  0.01  0.00  0.00  0.58  0.00
  YS02001762YS02001759    1.00   0.13  0.00  0.00  0.86  0.00  0.00  0.00  0.04  0.00
  YS02001765YS02001762    1.00   0.13  0.00  0.00  0.87  0.00  0.00  0.00  0.63  0.00
  YS02001767YS02001765    1.00   0.13  0.00  0.00  0.87  0.00  0.00  0.00  0.00  0.00
  YS02001770YS02001767    1.00   0.13  0.00  0.00  0.87  0.00  0.00  0.00  0.00  0.00
  YS02001774YS02001770    1.00   0.14  0.00  0.00  0.70  0.00  0.17  0.00  0.03  0.00
  YS02001779YS02001774    1.00   0.14  0.39  0.00  0.47  0.00  0.00  0.00  0.65  0.00
  YS02001783YS02001784    1.00   0.16  0.00  0.00  0.83  0.01  0.00  0.00  0.58  0.00
  YS02001784YS02001785    1.00   0.16  0.00  0.00  0.83  0.00  0.00  0.00  0.44  0.00
  YS02001786YS02001788    1.00   0.16  0.00  0.00  0.49  0.35  0.00  0.00  0.00  0.00
  YS02001788YS02001790    1.00   0.17  0.00  0.00  0.20  0.63  0.00  0.00  0.67  0.00
  YS02001790YS02001791    1.00   0.17  0.00  0.00  0.02  0.80  0.00  0.00  0.15  0.00
  YS02001791YS02001793    1.00   0.18  0.00  0.00  0.00  0.82  0.00  0.00  0.01  0.00
  YS02001793JiankangQianchi    1.00   0.00  0.18  0.00  0.79  0.02  0.00  0.00  0.77  0.00
  YS02001882YS02001884    1.00   0.15  0.00  0.00  0.85  0.00  0.00  0.00  0.00  0.00
  YS02001884YS02001887    1.00   0.14  0.01  0.00  0.85  0.00  0.00  0.00  0.00  0.00
  YS02001887YS02001890    1.00   0.13  0.00  0.00  0.86  0.00  0.01  0.00  0.00  0.00
  YS02001890YS02001895    1.00   0.14  0.02  0.00  0.84  0.00  0.00  0.00  0.00  0.00
  YS02001895YS02001898    1.00   0.16  0.00  0.00  0.83  0.00  0.01  0.00  0.00  0.00
  YS02001898YS02001901    1.00   0.16  0.00  0.00  0.84  0.00  0.00  0.00  0.01  0.00
  YS02001901YS02001904    1.00   0.16  0.00  0.00  0.84  0.00  0.00  0.00  0.00  0.00
  YS02001904YS02001907    1.00   0.13  0.03  0.00  0.84  0.00  0.00  0.00  0.00  0.00
  YS02001907YS02006553    1.00   0.13  0.01  0.00  0.86  0.00  0.00  0.00  0.01  0.00
  YS02001910YS02001907    1.00   0.13  0.00  0.00  0.86  0.00  0.00  0.01  0.03  0.00
  YS02001915YS02001910    1.00   0.13  0.00  0.00  0.85  0.02  0.00  0.00  0.02  0.00
  YS02001918YS02001915    1.00   0.13  0.02  0.00  0.85  0.00  0.00  0.00  0.75  0.00
  YS02001920YS02001918    1.00   0.14  0.01  0.00  0.85  0.00  0.00  0.00  0.00  0.00
  YS02001923YS02001920    1.00   0.14  0.00  0.00  0.86  0.00  0.00  0.00  0.80  0.00
  YS02001926YS02001923    1.00   0.13  0.01  0.00  0.08  0.00  0.78  0.00  0.00  0.00
  YS02001929YS02001926    1.00   0.13  0.00  0.00  0.87  0.00  0.00  0.00  0.83  0.00
  YS02006553YS02006556    1.00   0.14  0.00  0.00  0.86  0.00  0.00  0.00  0.02  0.00
  YS02006556YS02006558    1.00   0.13  0.00  0.00  0.86  0.00  0.00  0.00  0.00  0.00
  YS02006558YS02006561    1.00   0.16  0.00  0.00  0.07  0.77  0.00  0.00  0.17  0.00
  YS02006561YS02001783    1.00   0.16  0.00  0.00  0.24  0.60  0.00  0.00  0.72  0.00
  YS02163301YS02001633    1.00   0.13  0.02  0.00  0.85  0.00  0.00  0.00  0.00  0.00
  YS02163601YS02164001    1.00   0.14  0.01  0.00  0.86  0.00  0.00  0.00  0.01  0.00
  YS02164001YS02001641    1.00   0.13  0.01  0.00  0.86  0.00  0.00  0.00  0.00  0.00
  
  
  *************************
  Conduit Surcharge Summary
  *************************
  
  ----------------------------------------------------------------------------
                                                           Hours        Hours 
                         --------- Hours Full --------   Above Full   Capacity
  Conduit                Both Ends  Upstream  Dnstream   Normal Flow   Limited
  ----------------------------------------------------------------------------
  WS02003072WS02003073        0.01      0.01      0.01      0.66         0.01
  WS02004401WS02004402        0.01      0.01      0.01      0.01         0.01
  WS02004402WS02004403        0.01      0.01      0.01      0.02         0.01
  WS02004404WS02004405        0.01      0.01      0.01      2.37         0.01
  WS02004405WS02004406        0.01      0.01      0.01      0.21         0.01
  WS02006109WS02006110        0.33      0.33      1.25      0.41         0.01
  WS02006110WS02006113        0.01      0.01      1.24      0.01         0.01
  WS02006111WS02006112        0.01      0.01      1.43      0.01         0.01
  WS02006112WS02006115        0.01      0.01      0.40      0.01         0.01
  WS02006113WS02006111        0.01      0.01      0.01      0.01         0.01
  WS02006115WS02006116        0.01      0.01      0.01      0.01         0.01
  WS02006116WS02004401        0.01      0.01      0.01      0.02         0.01
  WS02006228WS02006109        1.22      1.24      1.23      1.65         1.22
  WS02006229WS02006228        1.22      1.23      1.22      1.44         1.20
  WS02006230WS02006229        1.31      1.39      1.32      2.67         1.31
  WS02006231WS02006230        0.34      0.34      0.46      2.39         0.01
  WS02006232WS02006231        0.42      0.42      1.23      0.48         0.01
  WS02006234WS02006232        1.19      1.19      1.23      0.47         0.46
  WS02006235WS02006234        0.72      0.72      1.19      2.17         0.01
  WS02006238WS02006235        1.21      1.21      1.23      0.01         0.01
  WS02006239WS02006238        1.21      1.22      1.22      1.25         1.08
  WS02006240WS02006239        1.20      1.21      1.20      1.23         1.05
  WS02006242WS02006240        1.21      1.21      1.24      1.38         0.01
  WS02006243WS02006242        1.18      1.18      1.22      0.01         0.03
  WS02006245WS02006243        1.17      1.17      1.18      0.91         0.80
  WS02006247WS02006245        1.16      1.17      1.16      1.86         1.15
  WS02006248WS02006247        1.16      1.16      1.16      0.01         0.03
  WS02006249WS02006248        1.15      1.16      1.15      1.81         0.01
  WS02006251WS02006249        1.15      1.15      1.15      1.33         1.10
  WS02006252WS02006251        1.38      1.38      1.40      1.38         0.01
  WS02006256WS02006235        2.21      2.26      5.36      0.85         0.01
  YS02001580YS02001583        0.39      0.39      0.42      0.01         0.01
  YS02001583YS02001586        0.39      0.39      0.49      0.01         0.01
  YS02001586YS02001590        0.50      0.50      0.55      0.01         0.01
  YS02001590YS02001593        0.55      0.55      0.56      0.60         0.01
  YS02001593YS02001596        0.56      0.56      0.63      0.01         0.01
  YS02001596YS02001600        0.66      0.66      0.74      0.01         0.01
  YS02001600YS02001601        0.79      0.79      1.07      0.01         0.01
  YS02001601YS02001602        0.95      0.95      1.12      0.76         0.01
  YS02001602YS02001605        0.90      0.90      0.95      1.88         0.01
  YS02001605YS02001607        0.86      0.90      0.86      1.02         0.86
  YS02001607YS02001610        0.49      0.49      0.51      0.01         0.01
  YS02001610YS02001613        0.49      0.49      0.51      0.01         0.01
  YS02001613YS02001616        0.45      0.45      0.49      0.01         0.01
  YS02001616YS02001619        0.44      0.44      0.45      0.01         0.01
  YS02001619YS02001622        0.44      0.44      0.44      0.59         0.42
  YS02001622YS02001625        0.44      0.44      0.59      0.01         0.01
  YS02001625YS02001629        0.38      0.38      0.59      0.01         0.01
  YS02001629YS02163301        0.57      0.57      0.58      0.23         0.23
  YS02001633YS02163601        0.60      0.60      0.62      0.39         0.39
  YS02001641YS02001644        0.48      0.52      0.48      1.17         0.48
  YS02001644YS02001647        0.32      0.32      0.48      0.04         0.01
  YS02001647YS02001649        0.32      0.32      0.38      0.01         0.01
  YS02001649YS02001757        0.38      0.38      0.41      0.31         0.27
  YS02001652YS02001649        0.28      0.28      0.38      0.01         0.01
  YS02001655YS02001652        0.12      0.12      0.26      0.01         0.01
  YS02001658YS02001655        0.04      0.04      0.12      0.01         0.01
  YS02001661YS02001658        0.01      0.01      0.04      0.01         0.01
  YS02001664YS02001661        0.01      0.01      0.01      0.01         0.01
  YS02001745YS02001748        0.01      0.01      0.01      0.01         0.01
  YS02001748YS02001751        0.02      0.02      0.06      0.01         0.01
  YS02001751YS02001754        0.06      0.06      0.13      0.01         0.01
  YS02001754YS02001757        0.16      0.16      0.41      0.01         0.01
  YS02001757CaochengTiaoxuchi        0.26      0.41      1.17      0.28         0.11
  YS02001759YS02001757        0.33      0.33      0.41      0.01         0.01
  YS02001762YS02001759        0.31      0.31      0.33      0.01         0.02
  YS02001765YS02001762        0.28      0.28      0.31      0.01         0.01
  YS02001767YS02001765        0.26      0.26      0.28      0.01         0.02
  YS02001770YS02001767        0.26      0.26      0.26      0.37         0.23
  YS02001774YS02001770        0.24      0.24      0.30      0.01         0.01
  YS02001779YS02001774        0.15      0.15      0.30      0.01         0.01
  YS02001783YS02001784        0.33      0.35      0.33      0.45         0.33
  YS02001784YS02001785        0.25      0.33      0.25      0.60         0.25
  YS02001786YS02001788        0.01      0.25      0.01      0.52         0.01
  YS02001790YS02001791        0.01      0.01      0.01      0.32         0.01
  YS02001793JiankangQianchi        0.01      0.01      3.93      0.01         0.01
  YS02001882YS02001884        0.31      0.31      0.32      0.01         0.01
  YS02001884YS02001887        0.33      0.33      0.34      0.01         0.01
  YS02001887YS02001890        0.35      0.35      0.36      0.04         0.01
  YS02001890YS02001895        0.30      0.30      0.38      0.01         0.01
  YS02001895YS02001898        0.29      0.29      0.30      0.01         0.01
  YS02001898YS02001901        0.30      0.30      0.33      0.01         0.01
  YS02001901YS02001904        0.32      0.32      0.33      0.01         0.01
  YS02001904YS02001907        0.32      0.32      0.51      0.01         0.01
  YS02001907YS02006553        0.61      0.61      0.66      0.01         0.01
  YS02001910YS02001907        0.37      0.37      0.49      0.01         0.01
  YS02001915YS02001910        0.31      0.31      0.37      0.01         0.01
  YS02001918YS02001915        0.24      0.24      0.31      0.01         0.01
  YS02001920YS02001918        0.24      0.24      0.25      0.01         0.01
  YS02001923YS02001920        0.20      0.20      0.25      0.01         0.01
  YS02001926YS02001923        0.01      0.01      0.02      0.01         0.01
  YS02001929YS02001926        0.01      0.01      0.02      0.01         0.01
  YS02006553YS02006556        0.43      0.43      0.51      0.01         0.01
  YS02006556YS02006558        0.47      0.47      0.51      0.01         0.01
  YS02006558YS02006561        0.27      0.43      0.27      0.57         0.27
  YS02006561YS02001783        0.21      0.21      0.35      0.01         0.01
  YS02163301YS02001633        0.58      0.58      0.61      0.01         0.01
  YS02163601YS02164001        0.53      0.53      0.62      0.15         0.01
  YS02164001YS02001641        0.52      0.53      0.52      0.61         0.46
  
  
  ***************
  Pumping Summary
  ***************
  
  ---------------------------------------------------------------------------------------------------------
                                                  Min       Avg       Max     Total     Power    % Time Off
                        Percent   Number of      Flow      Flow      Flow    Volume     Usage    Pump Curve
  Pump                 Utilized   Start-Ups       LPS       LPS       LPS  10^6 ltr     Kw-hr    Low   High
  ---------------------------------------------------------------------------------------------------------
  CC-R1                   19.83          21      0.00    683.00    683.00     3.901     68.77    0.0   45.0
  CC-R2                   12.96          22      0.00    683.00    683.00     2.549     44.68    0.0   55.0
  CC-S1                   23.13          18      0.00    200.00    200.00     1.332      8.28    0.0    0.0
  CC-S2                   18.98          16      0.00    200.00    200.00     1.093      6.70    0.0    0.0
  JK-R1                    5.25          10      0.00   1000.00   1000.00     1.512     16.20    0.0    0.0
  JK-R2                    1.78           9      0.00   1000.00   1000.00     0.513      4.76    0.0    0.0
  JK-S                    10.29          31      0.00    300.00    300.00     0.889     14.94    0.0    0.0
  

  Analysis begun on:  Thu Sep  7 21:55:39 2023
  Analysis ended on:  Thu Sep  7 21:55:50 2023
  Total elapsed time: 00:00:11