
  OWA STORM WATER MANAGEMENT MODEL - VERSION v5.2.3 (OWA 2023-03-28)
  ------------------------------------------------------------

  WARNING 04: minimum elevation drop used for Conduit WS02004404WS02004405
  WARNING 03: negative offset ignored for Link YS02001904YS02001907
  
  ****************
  Analysis Options
  ****************
  Flow Units ............... LPS
  Process Models:
    Rainfall/Runoff ........ YES
    RDII ................... NO
    Snowmelt ............... NO
    Groundwater ............ NO
    Flow Routing ........... YES
    Ponding Allowed ........ NO
    Water Quality .......... NO
  Infiltration Method ...... HORTON
  Flow Routing Method ...... DYNWAVE
  Surcharge Method ......... EXTRAN
  Starting Date ............ 08/28/2015 08:00:00
  Ending Date .............. 08/28/2015 16:00:00
  Antecedent Dry Days ...... 8.0
  Report Time Step ......... 00:01:00
  Wet Time Step ............ 00:01:00
  Dry Time Step ............ 00:01:00
  Routing Time Step ........ 30.00 sec
  Variable Time Step ....... YES
  Maximum Trials ........... 8
  Number of Threads ........ 1
  Head Tolerance ........... 0.001500 m
  
  
  **************************        Volume         Depth
  Runoff Quantity Continuity     hectare-m            mm
  **************************     ---------       -------
  Total Precipitation ......         3.586        59.189
  Evaporation Loss .........         0.000         0.000
  Infiltration Loss ........         0.236         3.900
  Surface Runoff ...........         3.289        54.296
  Final Storage ............         0.061         1.006
  Continuity Error (%) .....        -0.021
  
  
  **************************        Volume        Volume
  Flow Routing Continuity        hectare-m      10^6 ltr
  **************************     ---------     ---------
  Dry Weather Inflow .......         0.630         6.296
  Wet Weather Inflow .......         3.290        32.898
  Groundwater Inflow .......         0.000         0.000
  RDII Inflow ..............         0.000         0.000
  External Inflow ..........         0.105         1.045
  External Outflow .........         2.990        29.897
  Flooding Loss ............         1.338        13.380
  Evaporation Loss .........         0.000         0.000
  Exfiltration Loss ........         0.000         0.000
  Initial Stored Volume ....         0.303         3.031
  Final Stored Volume ......         0.177         1.771
  Continuity Error (%) .....        -4.107
  
  
  *************************
  Highest Continuity Errors
  *************************
  Node JK-storage (-30.43%)
  Node YS02001583 (-7.74%)
  Node YS02001884 (4.80%)
  Node CC-storage (-2.74%)
  Node HS02004842 (1.54%)
  
  
  ***************************
  Time-Step Critical Elements
  ***************************
  Link WS02006252WS02006251 (62.30%)
  Link WS02006280WS02006229 (13.44%)
  Link YS02001793JiankangQianchi (7.76%)
  Link WS02006238WS02006235 (5.81%)
  Link WS02003066WSF200 (3.26%)
  
  
  ********************************
  Highest Flow Instability Indexes
  ********************************
  Link WS02006113WS02006111 (38)
  Link WS02006111WS02006112 (22)
  Link WS02006238WS02006235 (12)
  Link WS02004404WS02004405 (11)
  Link WS02006252WS02006251 (11)
  
  
  *********************************
  Most Frequent Nonconverging Nodes
  *********************************
  Node CC-1 (6.74%)
  Node CC-2 (6.74%)
  Node JK-1 (6.74%)
  Node JK-2 (6.74%)
  Node WSC (6.74%)
  
  
  *************************
  Routing Time Step Summary
  *************************
  Minimum Time Step           :     0.01 sec
  Average Time Step           :     1.44 sec
  Maximum Time Step           :    30.00 sec
  % of Time in Steady State   :     0.00
  Average Iterations per Step :     2.75
  % of Steps Not Converging   :     6.74
  Time Step Frequencies       :
     30.000 - 13.228 sec      :     0.01 %
     13.228 -  5.833 sec      :     1.14 %
      5.833 -  2.572 sec      :    11.25 %
      2.572 -  1.134 sec      :    23.79 %
      1.134 -  0.500 sec      :    63.82 %
  
  
  ***************************
  Subcatchment Runoff Summary
  ***************************
  
  ------------------------------------------------------------------------------------------------------------------------------
                            Total      Total      Total      Total     Imperv       Perv      Total       Total     Peak  Runoff
                           Precip      Runon       Evap      Infil     Runoff     Runoff     Runoff      Runoff   Runoff   Coeff
  Subcatchment                 mm         mm         mm         mm         mm         mm         mm    10^6 ltr      LPS
  ------------------------------------------------------------------------------------------------------------------------------
  sub0                      59.19       0.00       0.00       1.00      53.80       3.15      56.94        0.05    31.92   0.962
  sub1                      59.19       0.00       0.00       1.69      51.43       4.82      56.25        0.37   214.05   0.950
  sub10                     59.19       0.00       0.00       1.20      53.17       3.54      56.71        0.63   366.29   0.958
  sub11                     59.19       0.00       0.00       1.18      53.19       3.56      56.75        0.66   407.15   0.959
  sub12                     59.19       0.00       0.00       1.92      50.32       5.78      56.10        0.49   329.09   0.948
  sub14                     59.19       0.00       0.00       1.34      52.60       3.99      56.59        0.54   324.02   0.956
  sub15                     59.19       0.00       0.00       5.20      40.46      12.56      53.03        0.91   488.01   0.896
  sub16                     59.19       0.00       0.00       5.39      38.75      14.14      52.89        0.55   327.51   0.894
  sub17                     59.19       0.00       0.00       5.26      39.32      13.69      53.01        0.45   265.95   0.896
  sub2                      59.19       0.00       0.00       7.37      36.39      14.53      50.92        0.47   212.67   0.860
  sub22                     59.19       0.00       0.00       7.85      32.96      17.60      50.56        3.19  1602.81   0.854
  sub23                     59.19       0.00       0.00       6.42      36.43      15.48      51.91        2.48  1338.40   0.877
  sub3                      59.19       0.00       0.00       7.99      36.35      13.91      50.26        1.13   458.00   0.849
  sub4                      59.19       0.00       0.00       1.87      51.27       4.64      55.91        1.17   510.65   0.945
  sub5                      59.19       0.00       0.00       1.04      53.74       3.10      56.84        0.64   370.24   0.960
  sub60                     59.19       0.00       0.00       1.80      50.88       5.30      56.19        0.74   460.99   0.949
  sub61                     59.19       0.00       0.00       2.61      48.00       7.46      55.45        1.02   636.93   0.937
  sub62                     59.19       0.00       0.00       1.20      53.17       3.54      56.70        1.55   897.20   0.958
  sub63                     59.19       0.00       0.00       4.78      41.05      12.39      53.44        1.21   701.14   0.903
  sub64                     59.19       0.00       0.00       2.42      49.10       6.46      55.56        1.33   720.21   0.939
  sub65                     59.19       0.00       0.00       2.10      50.24       5.60      55.84        1.54   805.91   0.943
  sub66                     59.19       0.00       0.00       5.86      40.95      11.30      52.25        2.44  1032.50   0.883
  sub67                     59.19       0.00       0.00       1.16      53.21       3.58      56.79        1.06   700.80   0.959
  sub68                     59.19       0.00       0.00       2.16      49.72       6.13      55.85        1.54   917.28   0.944
  sub69                     59.19       0.00       0.00       1.91      50.20       6.97      57.17        2.12  1077.57   0.966
  sub7                      59.19       0.00       0.00       1.33      52.62       4.00      56.62        0.19   120.96   0.957
  sub70                     59.19       0.00       0.00       6.28      38.90      13.85      52.75        1.52   582.11   0.891
  sub71                     59.19       0.00       0.00       1.23      53.13       3.51      56.63        1.48   783.58   0.957
  sub72                     59.19       0.00       0.00       1.09      53.64       3.05      56.70        0.78   376.03   0.958
  sub8                      59.19       0.00       0.00       1.34      52.61       3.99      56.60        0.36   220.24   0.956
  sub9                      59.19       0.00       0.00       1.34      52.61       3.99      56.59        0.27   164.66   0.956
  
  
  ******************
  Node Depth Summary
  ******************
  
  ---------------------------------------------------------------------------------
                                 Average  Maximum  Maximum  Time of Max    Reported
                                   Depth    Depth      HGL   Occurrence   Max Depth
  Node                 Type       Meters   Meters   Meters  days hr:min      Meters
  ---------------------------------------------------------------------------------
  HS02004478           JUNCTION     0.18     1.58    10.81     0  01:48        1.57
  HS02004479           JUNCTION     0.25     1.85    11.05     0  02:01        1.85
  HS02004480           JUNCTION     0.21     1.70    10.94     0  02:01        1.70
  HS02004770           JUNCTION     0.22     1.42    11.25     0  01:45        1.42
  HS02004777           JUNCTION     0.25     1.48    11.28     0  01:45        1.46
  HS02004785           JUNCTION     0.15     1.49    11.39     0  01:45        1.35
  HS02004788           JUNCTION     0.12     1.42    11.32     0  01:45        1.36
  HS02004792           JUNCTION     0.16     1.60    11.12     0  01:45        1.60
  HS02004799           JUNCTION     0.26     1.76    10.97     0  01:45        1.76
  HS02004802           JUNCTION     0.28     1.79    10.92     0  01:48        1.78
  HS02004807           JUNCTION     0.25     1.92    11.09     0  01:48        1.89
  HS02004817           JUNCTION     0.55     2.44    11.29     0  01:48        2.28
  HS02004824           JUNCTION     0.13     2.01    11.41     0  01:48        1.81
  HS02004830           JUNCTION     0.13     2.02    11.49     0  01:48        1.77
  HS02004837           JUNCTION     0.11     2.03    11.61     0  01:46        1.69
  HS02004842           JUNCTION     0.40     2.22    11.49     0  01:48        2.01
  HS02004848           JUNCTION     0.09     2.01    11.61     0  01:48        1.69
  HS02004852           JUNCTION     0.09     2.06    11.57     0  01:48        1.74
  HS02004856           JUNCTION     0.16     2.07    11.50     0  01:48        1.79
  HS02004862           JUNCTION     0.11     2.00    11.38     0  01:48        2.00
  HS02004870           JUNCTION     0.10     2.10    11.39     0  01:48        2.10
  HS02004876           JUNCTION     0.14     2.26    11.29     0  01:48        2.26
  HS02004881           JUNCTION     0.08     2.15    11.18     0  01:48        2.15
  HS02004901           JUNCTION     0.23     1.42    11.24     0  01:45        1.42
  WS02001211           JUNCTION     0.62     0.81     5.65     0  01:53        0.81
  WS02001212           JUNCTION     0.36     0.57     5.64     0  01:54        0.57
  WS02001213           JUNCTION     0.59     0.87     5.63     0  01:53        0.87
  WS02003059           JUNCTION     0.65     0.94     5.62     0  01:53        0.94
  WS02003060           JUNCTION     0.39     0.68     5.62     0  01:54        0.68
  WS02003066           JUNCTION     0.24     0.45     6.01     0  01:50        0.45
  WS02003067           JUNCTION     0.57     0.89     6.21     0  01:50        0.89
  WS02003069           JUNCTION     0.43     0.77     5.36     0  01:55        0.77
  WS02003072           JUNCTION     0.49     0.81     5.18     0  01:55        0.81
  WS02003073           JUNCTION     0.30     0.51     4.58     0  01:56        0.51
  WS02004138           JUNCTION     0.13     0.14     7.39     0  00:31        0.14
  WS02004139           JUNCTION     0.56     0.74     5.65     0  01:54        0.74
  WS02004401           JUNCTION     0.78     1.90     7.90     0  01:37        1.89
  WS02004402           JUNCTION     0.80     1.78     7.74     0  01:50        1.77
  WS02004403           JUNCTION     0.81     1.71     7.64     0  01:50        1.70
  WS02004404           JUNCTION     0.88     1.72     7.57     0  01:50        1.71
  WS02004405           JUNCTION     0.87     1.67     7.52     0  01:49        1.66
  WS02004406           JUNCTION     0.86     1.56     7.39     0  01:50        1.56
  WS02004407           JUNCTION     0.27     0.91     7.23     0  01:50        0.91
  WS02004409           JUNCTION     0.55     1.38     7.15     0  01:50        1.37
  WS02004410           JUNCTION     0.56     1.29     7.01     0  01:50        1.28
  WS02004411           JUNCTION     0.56     1.20     6.88     0  01:50        1.19
  WS02004412           JUNCTION     0.57     1.10     6.74     0  01:50        1.10
  WS02004413           JUNCTION     0.71     1.14     6.61     0  01:50        1.14
  WS02006109           JUNCTION     0.95     2.64     9.26     0  01:45        2.64
  WS02006110           JUNCTION     0.90     2.38     8.97     0  01:49        2.38
  WS02006111           JUNCTION     0.38     1.90     8.61     0  01:37        1.88
  WS02006112           JUNCTION     0.98     2.68     8.56     0  00:00        2.55
  WS02006113           JUNCTION     0.47     1.85     8.74     0  01:38        1.85
  WS02006115           JUNCTION     0.69     2.41     8.55     0  01:37        2.12
  WS02006116           JUNCTION     0.76     2.28     8.32     0  01:37        2.02
  WS02006228           JUNCTION     0.99     3.03     9.68     0  01:45        3.03
  WS02006229           JUNCTION     0.98     3.25     9.94     0  02:01        3.25
  WS02006230           JUNCTION     0.93     2.65     9.39     0  01:42        2.65
  WS02006231           JUNCTION     0.66     2.24     9.36     0  02:01        2.24
  WS02006232           JUNCTION     0.77     2.18     9.22     0  01:42        2.18
  WS02006234           JUNCTION     0.67     1.96     9.12     0  01:40        1.96
  WS02006235           JUNCTION     0.69     2.00     9.16     0  03:05        1.99
  WS02006238           JUNCTION     0.71     2.09     9.23     0  03:05        1.96
  WS02006239           JUNCTION     0.66     2.03     9.24     0  01:34        1.80
  WS02006240           JUNCTION     0.61     2.10     9.39     0  01:35        1.69
  WS02006242           JUNCTION     0.66     1.55     8.82     0  01:35        1.55
  WS02006243           JUNCTION     0.55     1.48     8.90     0  01:35        1.41
  WS02006245           JUNCTION     0.53     1.56     9.05     0  01:35        1.27
  WS02006247           JUNCTION     0.54     1.47     8.97     0  01:35        1.29
  WS02006248           JUNCTION     0.49     1.10     8.69     0  01:35        1.10
  WS02006249           JUNCTION     0.51     1.09     8.69     0  01:36        1.09
  WS02006251           JUNCTION     0.56     2.21     9.88     0  01:48        2.21
  WS02006252           JUNCTION     0.40     1.50     9.74     0  01:48        1.50
  WS02006253           JUNCTION     0.62     3.52    11.16     0  01:48        3.52
  WS02006256           JUNCTION     0.97     2.35     9.28     0  00:11        2.35
  WS02006280           JUNCTION     0.23     1.77    10.04     0  01:45        1.73
  WS02006284           JUNCTION     0.50     1.95    10.35     0  01:48        1.93
  WS02006287           JUNCTION     0.23     1.74    10.69     0  01:48        1.73
  WSF200               JUNCTION     0.24     0.52     5.75     0  01:53        0.52
  YS02001580           JUNCTION     0.06     1.05     9.59     0  01:45        0.77
  YS02001583           JUNCTION     0.09     1.14     9.64     0  01:45        0.82
  YS02001586           JUNCTION     0.15     1.13     9.30     0  01:45        1.13
  YS02001590           JUNCTION     0.24     1.40     9.26     0  01:45        1.37
  YS02001593           JUNCTION     0.17     1.35     9.21     0  01:45        1.34
  YS02001596           JUNCTION     0.24     1.71     9.13     0  02:26        1.71
  YS02001600           JUNCTION     0.30     1.87     9.00     0  01:45        1.87
  YS02001601           JUNCTION     0.49     2.06     8.90     0  01:44        2.06
  YS02001602           JUNCTION     0.41     1.87     8.77     0  01:45        1.87
  YS02001605           JUNCTION     0.38     1.78     8.68     0  01:45        1.77
  YS02001607           JUNCTION     0.39     1.65     8.49     0  02:06        1.65
  YS02001610           JUNCTION     0.43     1.68     8.48     0  01:45        1.68
  YS02001613           JUNCTION     0.39     1.69     8.53     0  01:45        1.66
  YS02001616           JUNCTION     0.33     1.61     8.52     0  01:45        1.61
  YS02001619           JUNCTION     0.30     1.61     8.54     0  01:45        1.61
  YS02001622           JUNCTION     0.30     1.62     8.52     0  01:45        1.57
  YS02001625           JUNCTION     0.56     1.78     8.38     0  01:45        1.78
  YS02001629           JUNCTION     0.45     1.85     8.40     0  01:45        1.85
  YS02001633           JUNCTION     0.53     2.07     8.52     0  01:47        2.04
  YS02001641           JUNCTION     0.51     1.97     8.40     0  01:48        1.95
  YS02001644           JUNCTION     0.51     1.92     8.35     0  01:48        1.92
  YS02001647           JUNCTION     0.32     1.82     8.43     0  01:49        1.72
  YS02001649           JUNCTION     0.42     2.05     8.44     0  01:49        1.93
  YS02001652           JUNCTION     0.30     2.11     8.71     0  01:49        1.80
  YS02001655           JUNCTION     0.19     2.18     9.03     0  01:49        1.63
  YS02001658           JUNCTION     0.10     2.30     9.44     0  01:49        1.42
  YS02001661           JUNCTION     0.12     2.11     9.52     0  01:49        1.24
  YS02001664           JUNCTION     0.04     0.83     8.76     0  01:49        0.80
  YS02001745           JUNCTION     0.05     2.28     9.80     0  01:49        0.70
  YS02001748           JUNCTION     0.11     2.27     9.35     0  01:48        1.14
  YS02001751           JUNCTION     0.17     2.20     9.08     0  01:49        1.31
  YS02001754           JUNCTION     0.27     2.20     8.81     0  01:49        1.56
  YS02001757           JUNCTION     0.47     2.21     8.47     0  01:49        1.92
  YS02001759           JUNCTION     0.41     2.18     8.55     0  01:49        1.91
  YS02001762           JUNCTION     0.39     2.15     8.55     0  01:49        1.89
  YS02001765           JUNCTION     0.37     2.10     8.55     0  01:49        1.86
  YS02001767           JUNCTION     0.35     2.03     8.52     0  01:48        1.86
  YS02001770           JUNCTION     0.36     1.95     8.45     0  01:48        1.95
  YS02001774           JUNCTION     0.42     2.01     8.43     0  01:49        1.98
  YS02001779           JUNCTION     0.24     1.68     8.37     0  01:48        1.68
  YS02001783           JUNCTION     0.20     1.81     7.95     0  02:00        1.47
  YS02001784           JUNCTION     0.22     1.81     7.87     0  02:00        1.42
  YS02001786           JUNCTION     0.19     1.66     7.69     0  02:00        1.26
  YS02001788           JUNCTION     0.14     1.68     7.66     0  02:00        1.13
  YS02001790           JUNCTION     0.17     1.96     7.60     0  02:00        1.29
  YS02001791           JUNCTION     0.12     1.53     7.00     0  02:00        1.27
  YS02001793           JUNCTION     0.10     1.92     6.76     0  02:00        1.80
  YS02001882           JUNCTION     0.26     1.83     8.55     0  01:46        1.64
  YS02001884           JUNCTION     0.35     1.93     8.55     0  01:46        1.75
  YS02001887           JUNCTION     0.42     1.94     8.48     0  01:46        1.83
  YS02001890           JUNCTION     0.45     1.81     8.32     0  01:46        1.81
  YS02001895           JUNCTION     0.23     1.59     8.34     0  01:47        1.56
  YS02001898           JUNCTION     0.24     1.61     8.34     0  01:47        1.56
  YS02001901           JUNCTION     0.35     1.71     8.32     0  01:47        1.67
  YS02001904           JUNCTION     0.33     1.66     8.29     0  01:47        1.63
  YS02001907           JUNCTION     0.64     1.96     8.25     0  01:47        1.96
  YS02001910           JUNCTION     0.44     2.01     8.52     0  01:46        1.87
  YS02001915           JUNCTION     0.26     2.00     8.72     0  01:46        1.74
  YS02001918           JUNCTION     0.13     1.81     8.88     0  01:48        1.40
  YS02001920           JUNCTION     0.21     2.14     9.15     0  01:48        1.46
  YS02001923           JUNCTION     0.10     2.03     9.29     0  01:48        1.21
  YS02001926           JUNCTION     0.14     1.90     9.35     0  01:48        1.02
  YS02001929           JUNCTION     0.07     1.78     9.47     0  01:48        0.78
  YS02006553           JUNCTION     0.64     2.04     8.33     0  02:00        1.98
  YS02006556           JUNCTION     0.62     2.11     8.42     0  02:00        1.97
  YS02006558           JUNCTION     0.66     2.19     8.45     0  02:00        2.02
  YS02006561           JUNCTION     0.13     1.36     8.02     0  02:00        1.08
  YS02163301           JUNCTION     0.47     1.95     8.46     0  01:47        1.93
  YS02163601           JUNCTION     0.57     2.08     8.48     0  01:48        2.05
  YS02164001           JUNCTION     0.50     1.99     8.45     0  01:48        1.96
  YSB1154              JUNCTION     0.38     1.97    11.03     0  01:45        1.93
  YSB1171              JUNCTION     0.52     1.95    10.85     0  01:45        1.95
  YSB1174              JUNCTION     0.33     1.83    10.94     0  01:45        1.81
  YSB6556              JUNCTION     0.28     1.80    10.97     0  01:45        1.75
  CC-1                 OUTFALL      0.00     0.00     0.00     0  00:00        0.00
  CC-2                 OUTFALL      0.00     0.00     0.00     0  00:00        0.00
  JK-1                 OUTFALL      0.00     0.00     0.00     0  00:00        0.00
  JK-2                 OUTFALL      0.00     0.00     0.00     0  00:00        0.00
  WSC                  OUTFALL      0.30     0.51     1.18     0  01:56        0.51
  CC-storage           STORAGE      0.84     2.04     7.54     0  03:05        2.04
  JK-storage           STORAGE      0.24     5.80     6.60     0  02:00        5.80
  XR-storage           STORAGE      7.90     9.26     7.26     0  08:00        9.26
  
  
  *******************
  Node Inflow Summary
  *******************
  
  -------------------------------------------------------------------------------------------------
                                  Maximum  Maximum                  Lateral       Total        Flow
                                  Lateral    Total  Time of Max      Inflow      Inflow     Balance
                                   Inflow   Inflow   Occurrence      Volume      Volume       Error
  Node                 Type           LPS      LPS  days hr:min    10^6 ltr    10^6 ltr     Percent
  -------------------------------------------------------------------------------------------------
  HS02004478           JUNCTION      0.00  2295.72     0  01:50           0        8.48      -0.016
  HS02004479           JUNCTION      0.00   521.44     0  01:47           0       0.816       0.087
  HS02004480           JUNCTION      0.00  2172.85     0  01:46           0        6.41       0.022
  HS02004770           JUNCTION   1338.40  1338.40     0  01:51        2.48        2.73       0.097
  HS02004777           JUNCTION      0.03   797.45     0  01:45    0.000864        1.91       0.268
  HS02004785           JUNCTION      0.15   807.02     0  01:45     0.00432        1.91       0.014
  HS02004788           JUNCTION    489.68   991.45     0  01:45        0.96        2.86      -0.005
  HS02004792           JUNCTION   1603.09  2379.18     0  01:51         3.2        6.06      -0.007
  HS02004799           JUNCTION    324.02  1759.42     0  01:46       0.539        5.72       0.043
  HS02004802           JUNCTION      0.00  1148.13     0  01:51           0        2.14       0.174
  HS02004807           JUNCTION    407.15  1147.93     0  01:51        0.66        2.19       0.169
  HS02004817           JUNCTION      0.60   756.52     0  01:52      0.0173        1.59       1.027
  HS02004824           JUNCTION    510.70   755.65     0  01:52        1.17        1.83       0.021
  HS02004830           JUNCTION      0.15   721.26     0  01:46     0.00432       0.914       0.140
  HS02004837           JUNCTION    372.64   953.43     0  01:46       0.809        1.28       0.040
  HS02004842           JUNCTION      0.00   929.69     0  01:46           0       0.839       1.569
  HS02004848           JUNCTION    458.00  1167.00     0  01:46        1.13         1.8      -0.006
  HS02004852           JUNCTION      0.00  1155.14     0  01:47           0        1.64      -0.001
  HS02004856           JUNCTION    164.66  1285.87     0  01:47       0.272        1.91       0.071
  HS02004862           JUNCTION    212.87  1406.63     0  01:47        0.48        2.39      -0.005
  HS02004870           JUNCTION    220.24  1588.90     0  01:47       0.362        2.75      -0.015
  HS02004876           JUNCTION    214.05  1443.50     0  01:48       0.374        3.12       0.013
  HS02004881           JUNCTION    120.96  1550.37     0  01:48       0.191        3.31      -0.001
  HS02004901           JUNCTION    327.51   555.57     0  01:52       0.554       0.837       0.173
  WS02001211           JUNCTION      7.35   228.56     0  01:44       0.212        5.44       0.612
  WS02001212           JUNCTION      0.00   206.23     0  02:36           0        5.41       0.290
  WS02001213           JUNCTION      0.00   209.47     0  02:36           0        5.39       0.332
  WS02003059           JUNCTION      0.00   213.47     0  03:19           0        5.39       0.594
  WS02003060           JUNCTION     16.53  1499.00     0  01:52       0.476        15.6       0.095
  WS02003066           JUNCTION      0.00  1295.66     0  01:50           0        9.75       0.015
  WS02003067           JUNCTION      0.00  1293.51     0  01:51           0        9.76       0.044
  WS02003069           JUNCTION      0.32  1497.47     0  01:54     0.00922        15.6       0.099
  WS02003072           JUNCTION      0.00  1497.15     0  01:55           0        15.5       0.133
  WS02003073           JUNCTION      1.82  1498.91     0  01:55      0.0524        15.6       0.138
  WS02004138           JUNCTION      0.00   190.00     0  00:29           0        5.25       0.053
  WS02004139           JUNCTION      0.32   190.32     0  00:31     0.00924        5.26       0.508
  WS02004401           JUNCTION      0.00  1292.90     0  01:50           0        9.86       0.112
  WS02004402           JUNCTION      0.00  1293.47     0  01:50           0        9.86       0.112
  WS02004403           JUNCTION      0.00  1293.37     0  01:50           0        9.85       0.108
  WS02004404           JUNCTION      0.16  1293.54     0  01:50     0.00467        9.84       0.089
  WS02004405           JUNCTION      0.04  1293.52     0  01:50      0.0011        9.83       0.127
  WS02004406           JUNCTION      0.00  1293.62     0  01:50           0        9.82       0.218
  WS02004407           JUNCTION      0.00  1293.46     0  01:50           0        9.79       0.015
  WS02004409           JUNCTION      0.00  1293.62     0  01:51           0        9.79       0.028
  WS02004410           JUNCTION      0.00  1293.62     0  01:51           0        9.79       0.047
  WS02004411           JUNCTION      0.00  1293.36     0  01:51           0        9.78       0.059
  WS02004412           JUNCTION      0.00  1293.41     0  01:51           0        9.78       0.080
  WS02004413           JUNCTION      0.00  1293.40     0  01:51           0        9.77       0.136
  WS02006109           JUNCTION      1.23  1308.01     0  00:00      0.0354        9.61       0.112
  WS02006110           JUNCTION      0.00  1119.66     0  02:08           0        9.36      -0.381
  WS02006111           JUNCTION      0.00  1176.04     0  00:00           0        9.39      -0.402
  WS02006112           JUNCTION    265.95  2307.30     0  00:00       0.455        9.88      -0.006
  WS02006113           JUNCTION      0.00  1119.65     0  02:08           0        9.35      -0.486
  WS02006115           JUNCTION      0.00  2152.75     0  00:00           0        9.87       0.042
  WS02006116           JUNCTION      0.00  1293.03     0  01:50           0        9.86      -0.007
  WS02006228           JUNCTION      0.00  1284.07     0  01:51           0        9.56       0.057
  WS02006229           JUNCTION      0.00  2296.35     0  01:50           0        11.8       0.085
  WS02006230           JUNCTION     10.28  1021.91     0  01:51       0.296        5.58       0.083
  WS02006231           JUNCTION      0.00   453.29     0  02:01           0         4.4      -0.106
  WS02006232           JUNCTION      0.00   453.53     0  02:03           0        4.39       0.093
  WS02006234           JUNCTION      0.00   453.14     0  01:48           0        4.37      -0.041
  WS02006235           JUNCTION      0.00   419.70     0  01:55           0        4.27       0.049
  WS02006238           JUNCTION      0.00   415.80     0  02:17           0         3.9      -0.124
  WS02006239           JUNCTION      0.00   415.14     0  02:16           0        3.89      -0.223
  WS02006240           JUNCTION      0.00   414.85     0  02:17           0        3.89       0.001
  WS02006242           JUNCTION      0.00   414.89     0  02:17           0        3.89       0.035
  WS02006243           JUNCTION      0.00   381.08     0  04:19           0        3.54      -0.189
  WS02006245           JUNCTION      0.00   390.80     0  04:17           0        3.55       0.194
  WS02006247           JUNCTION      0.00   393.52     0  04:17           0        3.55      -0.000
  WS02006248           JUNCTION      0.00   401.77     0  04:17           0        3.78      -0.042
  WS02006249           JUNCTION      0.00  1344.73     0  01:48           0        6.26       0.066
  WS02006251           JUNCTION      0.08  1584.33     0  01:48     0.00222        6.37       0.007
  WS02006252           JUNCTION      0.00   441.05     0  01:48           0        3.18      -0.297
  WS02006253           JUNCTION     31.92  1582.37     0  01:48      0.0461         3.4      -0.012
  WS02006256           JUNCTION      0.00   300.00     0  01:30           0       0.764       0.089
  WS02006280           JUNCTION      0.00  2295.74     0  01:51           0        8.47       0.013
  WS02006284           JUNCTION      0.10  2295.73     0  01:51     0.00275        8.47      -0.019
  WS02006287           JUNCTION      0.00  2296.25     0  01:51           0        8.47       0.008
  WSF200               JUNCTION      0.00  1295.65     0  01:50           0        9.75       0.006
  YS02001580           JUNCTION      0.00   129.91     0  01:45           0     0.00431      -0.101
  YS02001583           JUNCTION      0.00   216.28     0  01:45           0      0.0151      -7.181
  YS02001586           JUNCTION    582.11   582.26     0  01:54        1.52        1.54       0.092
  YS02001590           JUNCTION      0.00   318.08     0  01:59           0        1.29      -0.031
  YS02001593           JUNCTION      0.00   318.12     0  01:59           0        1.29       0.023
  YS02001596           JUNCTION      0.00   318.17     0  01:59           0        1.29      -0.018
  YS02001600           JUNCTION      0.00   318.19     0  01:59           0        1.29      -0.014
  YS02001601           JUNCTION   1077.57  1395.15     0  01:52        2.12        3.41       0.010
  YS02001602           JUNCTION      0.00   550.43     0  01:45           0        2.26       0.015
  YS02001605           JUNCTION      0.00   550.63     0  01:45           0        2.17       0.019
  YS02001607           JUNCTION      0.00   551.13     0  01:45           0        2.17       0.085
  YS02001610           JUNCTION      0.00   543.37     0  01:45           0        2.25       0.086
  YS02001613           JUNCTION      0.00   549.41     0  01:45           0        1.87       0.090
  YS02001616           JUNCTION      0.00   556.15     0  01:45           0        1.87       0.019
  YS02001619           JUNCTION   1032.50  1032.50     0  01:53        2.44        4.23      -0.005
  YS02001622           JUNCTION      0.00   947.49     0  01:45           0        4.14      -0.014
  YS02001625           JUNCTION      0.00  1135.95     0  01:53           0        4.22       0.320
  YS02001629           JUNCTION      0.00   949.02     0  01:45           0        3.61      -0.068
  YS02001633           JUNCTION    806.11  1433.58     0  01:47        1.54        5.05       0.064
  YS02001641           JUNCTION      0.00  1432.06     0  01:47           0        4.96       0.046
  YS02001644           JUNCTION    720.25  1896.84     0  01:47        1.34        6.29       0.042
  YS02001647           JUNCTION      0.00  1897.18     0  01:47           0        6.16      -0.003
  YS02001649           JUNCTION      0.00  2173.10     0  01:47           0        7.37       0.001
  YS02001652           JUNCTION      0.00   914.09     0  01:50           0        1.22      -0.110
  YS02001655           JUNCTION      0.15   913.76     0  01:50     0.00443        1.22       0.114
  YS02001658           JUNCTION      0.00   913.74     0  01:50           0        1.21      -0.048
  YS02001661           JUNCTION      0.00   903.65     0  01:50           0        1.21       0.018
  YS02001664           JUNCTION    701.14   701.14     0  01:51        1.21        1.21      -0.007
  YS02001745           JUNCTION    460.99   692.94     0  01:49       0.739       0.741       0.275
  YS02001748           JUNCTION      0.04   625.61     0  01:49      0.0013        0.75      -0.507
  YS02001751           JUNCTION      0.01   606.95     0  01:49    0.000317       0.759       0.157
  YS02001754           JUNCTION      0.26   608.38     0  01:49     0.00749       0.773      -0.170
  YS02001757           JUNCTION      0.00  3417.06     0  01:54           0        10.7       0.016
  YS02001759           JUNCTION    636.97  1454.58     0  01:49        1.02        2.56      -0.008
  YS02001762           JUNCTION      0.00   841.82     0  01:49           0        1.54       0.008
  YS02001765           JUNCTION      0.00   840.96     0  01:49           0        1.54      -0.014
  YS02001767           JUNCTION      0.54   840.45     0  01:49      0.0154        1.54      -0.016
  YS02001770           JUNCTION    897.36   897.36     0  01:51        1.56        1.62      -0.048
  YS02001774           JUNCTION      0.00   496.54     0  01:48           0       0.135       0.769
  YS02001779           JUNCTION      0.01   504.58     0  01:48    0.000144      0.0749      -0.995
  YS02001783           JUNCTION      0.00  1162.85     0  01:49           0        3.86       0.005
  YS02001784           JUNCTION      1.06  1163.78     0  01:49      0.0305        3.89       0.015
  YS02001786           JUNCTION      0.06  1163.76     0  01:49     0.00162        3.89       0.017
  YS02001788           JUNCTION      0.07  1163.95     0  01:49     0.00204        3.89       0.008
  YS02001790           JUNCTION      0.15  1177.55     0  01:50     0.00446        3.89       0.006
  YS02001791           JUNCTION      0.00  1287.83     0  02:15           0        3.89      -0.010
  YS02001793           JUNCTION      0.00  1364.17     0  02:15           0        3.89      -0.038
  YS02001882           JUNCTION      0.00    60.00     0  01:46           0      0.0128       3.715
  YS02001884           JUNCTION      0.00   123.08     0  01:46           0      0.0489       5.040
  YS02001887           JUNCTION    701.25   701.27     0  01:50        1.07         1.1       0.404
  YS02001890           JUNCTION      0.00   701.66     0  01:50           0        1.06       0.466
  YS02001895           JUNCTION      0.00   529.21     0  01:47           0        1.01       0.177
  YS02001898           JUNCTION      0.00   530.98     0  01:47           0        1.01       0.000
  YS02001901           JUNCTION      0.00   533.50     0  01:47           0        1.01       0.332
  YS02001904           JUNCTION      0.00   534.82     0  01:47           0        1.01       0.259
  YS02001907           JUNCTION      0.00  1711.83     0  01:52           0        3.35       0.508
  YS02001910           JUNCTION      0.00  1195.77     0  01:52           0        2.34       0.297
  YS02001915           JUNCTION    783.60  1195.23     0  01:52        1.48        2.39       0.056
  YS02001918           JUNCTION      0.00   553.75     0  01:47           0       0.943       0.018
  YS02001920           JUNCTION      2.87   533.97     0  01:47      0.0827       0.922       0.078
  YS02001923           JUNCTION      0.04   621.37     0  01:47     0.00109       0.822      -0.052
  YS02001926           JUNCTION      0.05   921.33     0  01:47      0.0015       0.801      -0.074
  YS02001929           JUNCTION    376.03   768.39     0  01:48        0.78       0.785      -0.057
  YS02006553           JUNCTION      0.00   741.87     0  02:16           0        2.35       0.497
  YS02006556           JUNCTION      0.00   742.01     0  02:16           0        2.35       0.336
  YS02006558           JUNCTION    918.16  1166.94     0  01:47        1.56        3.89       0.090
  YS02006561           JUNCTION      0.00  1166.31     0  01:47           0        3.86      -0.002
  YS02163301           JUNCTION      0.00   924.69     0  01:47           0         3.6       0.039
  YS02163601           JUNCTION      0.11  1433.45     0  01:47     0.00317        4.95       0.090
  YS02164001           JUNCTION      0.00  1432.87     0  01:47           0        4.95       0.028
  YSB1154              JUNCTION    370.24   370.24     0  01:51       0.644       0.645       0.219
  YSB1171              JUNCTION      0.00   838.70     0  01:51           0        1.19       0.491
  YSB1174              JUNCTION    329.09   329.09     0  01:50        0.49       0.491       0.244
  YSB6556              JUNCTION      0.00   370.21     0  01:51           0       0.646       0.159
  CC-1                 OUTFALL       0.00   683.00     0  01:37           0        3.59       0.000
  CC-2                 OUTFALL       0.00   683.00     0  00:20           0        6.56       0.000
  JK-1                 OUTFALL       0.00  1000.00     0  00:05           0         2.2       0.000
  JK-2                 OUTFALL       0.00  1000.00     0  01:47           0           2       0.000
  WSC                  OUTFALL       0.00  1498.97     0  01:56           0        15.6       0.000
  CC-storage           STORAGE       0.00  3416.84     0  01:54           0        12.9      -2.667
  JK-storage           STORAGE       0.00  1716.20     0  02:15           0        4.05     -23.331
  XR-storage           STORAGE     200.00   200.00     0  00:00        5.76        6.36       0.001
  
  
  **********************
  Node Surcharge Summary
  **********************
  
  Surcharging occurs when water rises above the top of the highest conduit.
  ---------------------------------------------------------------------
                                               Max. Height   Min. Depth
                                   Hours       Above Crown    Below Rim
  Node                 Type      Surcharged         Meters       Meters
  ---------------------------------------------------------------------
  HS02004478           JUNCTION        0.45          0.659        0.281
  HS02004479           JUNCTION        0.59          1.050        0.000
  HS02004480           JUNCTION        0.63          0.989        0.111
  HS02004770           JUNCTION        0.54          0.720        0.000
  HS02004777           JUNCTION        0.55          0.780        0.000
  HS02004785           JUNCTION        0.49          0.790        0.000
  HS02004788           JUNCTION        0.48          0.720        0.000
  HS02004792           JUNCTION        0.60          0.900        0.000
  HS02004799           JUNCTION        0.72          1.060        0.000
  HS02004802           JUNCTION        0.64          1.085        0.125
  HS02004807           JUNCTION        0.62          1.220        0.000
  HS02004817           JUNCTION        1.24          1.737        0.003
  HS02004824           JUNCTION        0.47          1.310        0.000
  HS02004830           JUNCTION        0.44          1.323        0.007
  HS02004837           JUNCTION        0.40          1.329        0.011
  HS02004842           JUNCTION        0.54          1.520        0.000
  HS02004848           JUNCTION        0.36          1.311        0.059
  HS02004852           JUNCTION        0.39          1.363        0.057
  HS02004856           JUNCTION        0.35          1.300        0.000
  HS02004862           JUNCTION        0.40          1.300        0.000
  HS02004870           JUNCTION        0.41          1.400        0.000
  HS02004876           JUNCTION        0.47          1.560        0.000
  HS02004881           JUNCTION        0.43          1.450        0.000
  HS02004901           JUNCTION        0.55          0.720        0.000
  WS02004401           JUNCTION        1.64          0.897        0.763
  WS02004402           JUNCTION        1.66          0.782        0.958
  WS02004403           JUNCTION        1.67          0.708        1.322
  WS02004404           JUNCTION        1.74          0.718        2.062
  WS02004405           JUNCTION        1.73          0.670        2.130
  WS02004406           JUNCTION        1.71          0.558        1.892
  WS02004409           JUNCTION        0.95          0.379        1.981
  WS02004410           JUNCTION        0.91          0.290        2.250
  WS02004411           JUNCTION        0.84          0.196        2.334
  WS02004412           JUNCTION        0.75          0.099        2.211
  WS02004413           JUNCTION        1.35          0.142        2.058
  WS02006109           JUNCTION        2.11          1.820        0.000
  WS02006110           JUNCTION        1.85          1.475        0.375
  WS02006111           JUNCTION        1.27          1.088        0.782
  WS02006112           JUNCTION        1.94          1.680        0.000
  WS02006113           JUNCTION        1.31          1.047        0.883
  WS02006115           JUNCTION        1.57          1.403        0.847
  WS02006116           JUNCTION        1.59          1.220        1.070
  WS02006228           JUNCTION        2.10          2.200        0.000
  WS02006229           JUNCTION        0.90          1.070        0.000
  WS02006230           JUNCTION        1.74          1.570        0.000
  WS02006231           JUNCTION        1.79          1.530        0.000
  WS02006232           JUNCTION        2.05          1.480        0.000
  WS02006234           JUNCTION        1.86          1.240        0.000
  WS02006235           JUNCTION        1.90          1.290        0.000
  WS02006238           JUNCTION        1.94          1.369        0.061
  WS02006239           JUNCTION        1.86          1.290        0.000
  WS02006240           JUNCTION        1.83          1.390        0.000
  WS02006242           JUNCTION        1.95          0.820        0.000
  WS02006243           JUNCTION        1.78          0.770        0.000
  WS02006245           JUNCTION        1.75          0.850        0.000
  WS02006247           JUNCTION        1.77          0.760        0.000
  WS02006248           JUNCTION        1.70          0.380        0.000
  WS02006249           JUNCTION        1.73          0.390        0.000
  WS02006251           JUNCTION        1.57          1.180        0.000
  WS02006252           JUNCTION        1.96          1.100        0.000
  WS02006253           JUNCTION        1.59          2.480        0.000
  WS02006256           JUNCTION        5.56          2.050        0.000
  WS02006280           JUNCTION        0.74          0.719        0.061
  WS02006284           JUNCTION        0.66          0.670        0.130
  WS02006287           JUNCTION        0.56          0.737        0.153
  YS02001580           JUNCTION        0.57          0.450        0.000
  YS02001583           JUNCTION        0.58          0.500        0.000
  YS02001586           JUNCTION        0.70          0.510        0.000
  YS02001590           JUNCTION        0.78          0.750        0.000
  YS02001593           JUNCTION        0.78          0.729        0.111
  YS02001596           JUNCTION        0.91          0.979        0.091
  YS02001600           JUNCTION        1.19          1.190        0.000
  YS02001601           JUNCTION        1.68          1.440        0.000
  YS02001602           JUNCTION        1.61          1.270        0.000
  YS02001605           JUNCTION        1.59          1.180        0.000
  YS02001607           JUNCTION        0.73          0.646        0.034
  YS02001610           JUNCTION        0.78          0.680        0.000
  YS02001613           JUNCTION        0.73          0.689        0.011
  YS02001616           JUNCTION        0.68          0.610        0.000
  YS02001619           JUNCTION        0.66          0.610        0.000
  YS02001622           JUNCTION        0.65          0.620        0.000
  YS02001625           JUNCTION        1.35          0.780        0.000
  YS02001629           JUNCTION        0.56          0.470        0.000
  YS02001633           JUNCTION        1.46          1.049        0.011
  YS02001641           JUNCTION        1.47          0.966        0.134
  YS02001644           JUNCTION        1.46          0.920        0.000
  YS02001647           JUNCTION        0.45          0.818        0.082
  YS02001649           JUNCTION        1.22          1.050        0.000
  YS02001652           JUNCTION        0.33          1.084        0.046
  YS02001655           JUNCTION        0.21          1.183        0.017
  YS02001658           JUNCTION        0.12          1.300        0.000
  YS02001661           JUNCTION        0.01          1.042        0.348
  YS02001745           JUNCTION        0.01          1.281        0.069
  YS02001748           JUNCTION        0.03          1.190        0.000
  YS02001751           JUNCTION        0.14          1.200        0.000
  YS02001754           JUNCTION        0.21          1.150        0.000
  YS02001757           JUNCTION        1.58          1.210        0.000
  YS02001759           JUNCTION        1.10          1.182        0.028
  YS02001762           JUNCTION        0.96          1.150        0.000
  YS02001765           JUNCTION        0.77          1.100        0.000
  YS02001767           JUNCTION        0.63          1.030        0.000
  YS02001770           JUNCTION        0.51          0.920        0.000
  YS02001774           JUNCTION        0.89          1.008        0.042
  YS02001779           JUNCTION        0.23          0.680        0.000
  YS02001783           JUNCTION        0.55          1.014        0.586
  YS02001784           JUNCTION        0.53          1.006        0.484
  YS02001786           JUNCTION        0.47          0.855        0.575
  YS02001788           JUNCTION        0.24          0.880        0.600
  YS02001790           JUNCTION        0.26          1.157        0.000
  YS02001791           JUNCTION        0.25          0.730        1.190
  YS02001793           JUNCTION        0.27          0.924        1.676
  YS02001882           JUNCTION        0.50          0.830        0.000
  YS02001884           JUNCTION        0.52          0.870        0.000
  YS02001887           JUNCTION        0.54          0.895        0.055
  YS02001890           JUNCTION        0.55          0.760        0.000
  YS02001895           JUNCTION        0.49          0.589        0.161
  YS02001898           JUNCTION        0.49          0.580        0.160
  YS02001901           JUNCTION        0.53          0.713        0.157
  YS02001904           JUNCTION        0.52          0.658        0.192
  YS02001907           JUNCTION        0.73          0.950        0.000
  YS02001910           JUNCTION        0.58          1.012        0.088
  YS02001915           JUNCTION        0.50          1.000        0.000
  YS02001918           JUNCTION        0.43          0.810        0.000
  YS02001920           JUNCTION        0.44          1.140        0.000
  YS02001923           JUNCTION        0.02          0.820        0.000
  YS02001926           JUNCTION        0.04          0.900        0.000
  YS02001929           JUNCTION        0.01          0.780        0.000
  YS02006553           JUNCTION        0.75          1.043        0.147
  YS02006556           JUNCTION        0.65          1.072        0.278
  YS02006558           JUNCTION        0.64          1.087        0.313
  YS02006561           JUNCTION        0.43          0.559        0.591
  YS02163301           JUNCTION        1.44          0.947        0.083
  YS02163601           JUNCTION        1.52          1.080        0.000
  YS02164001           JUNCTION        1.46          0.990        0.110
  YSB1154              JUNCTION        0.85          1.272        0.128
  YSB1171              JUNCTION        0.86          1.100        0.000
  YSB1174              JUNCTION        0.76          1.129        0.121
  YSB6556              JUNCTION        0.69          1.100        0.000
  
  
  *********************
  Node Flooding Summary
  *********************
  
  Flooding refers to all water that overflows a node, whether it ponds or not.
  --------------------------------------------------------------------------
                                                             Total   Maximum
                                 Maximum   Time of Max       Flood    Ponded
                        Hours       Rate    Occurrence      Volume     Depth
  Node                 Flooded       LPS   days hr:min    10^6 ltr    Meters
  --------------------------------------------------------------------------
  HS02004479              0.01      1.52      0  02:01       0.000     0.000
  HS02004770              0.33    839.66      0  01:50       0.535     0.000
  HS02004777              0.01     48.85      0  01:45       0.001     0.000
  HS02004785              0.01     74.14      0  01:45       0.000     0.000
  HS02004788              0.01    459.46      0  01:45       0.003     0.000
  HS02004792              0.34   1236.87      0  01:51       0.885     0.000
  HS02004799              0.15    214.44      0  01:49       0.059     0.000
  HS02004807              0.01     17.67      0  01:48       0.000     0.000
  HS02004824              0.01      7.32      0  01:48       0.000     0.000
  HS02004842              0.01     57.55      0  01:48       0.000     0.000
  HS02004856              0.01      2.62      0  01:48       0.000     0.000
  HS02004862              0.01    213.63      0  01:48       0.003     0.000
  HS02004870              0.01    318.10      0  01:48       0.001     0.000
  HS02004876              0.01    229.24      0  01:48       0.001     0.000
  HS02004881              0.01    406.28      0  01:48       0.001     0.000
  HS02004901              0.41    555.57      0  01:52       0.586     0.000
  WS02006109              0.38    258.84      0  01:51       0.216     0.000
  WS02006112              0.01   1153.65      0  00:00       0.035     0.000
  WS02006228              0.01      5.07      0  01:45       0.000     0.000
  WS02006229              0.01      0.79      0  02:01       0.000     0.000
  WS02006230              0.67    569.24      0  01:51       0.888     0.000
  WS02006231              0.01      0.35      0  02:01       0.000     0.000
  WS02006232              0.15      1.61      0  02:03       0.000     0.000
  WS02006234              0.71    128.50      0  01:49       0.218     0.000
  WS02006235              0.01     17.73      0  03:05       0.000     0.000
  WS02006239              0.01     78.19      0  01:34       0.000     0.000
  WS02006240              0.01    158.79      0  01:35       0.000     0.000
  WS02006242              0.81    307.14      0  01:35       0.346     0.000
  WS02006243              0.01    255.09      0  01:35       0.001     0.000
  WS02006245              0.01    153.31      0  01:35       0.000     0.000
  WS02006247              0.01    256.53      0  01:35       0.000     0.000
  WS02006248              1.10    340.00      0  01:45       1.148     0.000
  WS02006249              1.55   1283.22      0  01:48       3.387     0.000
  WS02006251              0.01    102.22      0  01:48       0.000     0.000
  WS02006252              0.27    440.55      0  01:48       0.218     0.000
  WS02006253              0.01     96.53      0  01:48       0.000     0.000
  WS02006256              0.46    297.76      0  02:15       0.288     0.000
  YS02001580              0.01     83.02      0  01:45       0.000     0.000
  YS02001583              0.01    145.74      0  01:45       0.000     0.000
  YS02001586              0.45    264.65      0  01:53       0.234     0.000
  YS02001590              0.01      1.95      0  01:45       0.000     0.000
  YS02001600              0.01      1.63      0  01:45       0.000     0.000
  YS02001601              0.62    997.28      0  01:52       1.146     0.000
  YS02001602              0.46     62.12      0  01:59       0.093     0.000
  YS02001605              0.01      3.83      0  01:45       0.000     0.000
  YS02001610              0.40    513.62      0  01:53       0.456     0.000
  YS02001616              0.01      7.10      0  01:45       0.000     0.000
  YS02001619              0.01    104.76      0  01:45       0.000     0.000
  YS02001622              0.01    181.28      0  01:45       0.000     0.000
  YS02001625              0.32   1135.75      0  01:53       0.688     0.000
  YS02001629              0.08    246.23      0  01:45       0.032     0.000
  YS02001644              0.10    668.46      0  01:50       0.121     0.000
  YS02001649              0.01    130.14      0  01:49       0.001     0.000
  YS02001658              0.01    371.21      0  01:49       0.000     0.000
  YS02001748              0.01    378.20      0  01:49       0.001     0.000
  YS02001751              0.01     56.98      0  01:49       0.000     0.000
  YS02001754              0.01     51.06      0  01:49       0.000     0.000
  YS02001757              0.01     17.03      0  01:49       0.000     0.000
  YS02001762              0.01      9.05      0  01:49       0.000     0.000
  YS02001765              0.01      8.58      0  01:49       0.000     0.000
  YS02001767              0.01     93.84      0  01:48       0.000     0.000
  YS02001770              0.01    225.93      0  01:48       0.001     0.000
  YS02001779              0.09    459.40      0  01:48       0.044     0.000
  YS02001790              0.01    231.90      0  02:00       0.000     0.000
  YS02001882              0.01     38.23      0  01:46       0.000     0.000
  YS02001884              0.01     18.84      0  01:46       0.000     0.000
  YS02001890              0.12    186.34      0  01:50       0.049     0.000
  YS02001907              0.37   1452.39      0  01:52       0.995     0.000
  YS02001915              0.01    113.84      0  01:46       0.000     0.000
  YS02001918              0.01    170.83      0  01:48       0.002     0.000
  YS02001920              0.01     32.89      0  01:48       0.000     0.000
  YS02001923              0.01    105.99      0  01:48       0.000     0.000
  YS02001926              0.01    672.06      0  01:48       0.003     0.000
  YS02001929              0.01    472.90      0  01:48       0.002     0.000
  YS02163601              0.01      2.85      0  01:48       0.000     0.000
  YSB1171                 0.25    838.68      0  01:51       0.422     0.000
  YSB6556                 0.01     16.90      0  01:45       0.000     0.000
  JK-storage              0.08   1044.96      0  02:00       0.276     0.000
  
  
  **********************
  Storage Volume Summary
  **********************
  
  ------------------------------------------------------------------------------------------------
                         Average    Avg   Evap  Exfil     Maximum    Max    Time of Max    Maximum
                          Volume   Pcnt   Pcnt   Pcnt      Volume   Pcnt     Occurrence    Outflow
  Storage Unit           1000 m   Full   Loss   Loss     1000 m   Full    days hr:min        LPS
  ------------------------------------------------------------------------------------------------
  CC-storage               2.354   36.7    0.0    0.0       5.682   88.6       0  03:05    1566.00
  JK-storage               0.012    4.2    0.0    0.0       0.291  100.0       0  02:00    2300.00
  XR-storage               0.948   65.9    0.0    0.0       1.111   77.1       0  08:00     190.00
  
  
  ***********************
  Outfall Loading Summary
  ***********************
  
  -----------------------------------------------------------
                         Flow       Avg       Max       Total
                         Freq      Flow      Flow      Volume
  Outfall Node           Pcnt       LPS       LPS    10^6 ltr
  -----------------------------------------------------------
  CC-1                  38.69    478.10    683.00       3.587
  CC-2                  55.42    502.61    683.00       6.558
  JK-1                  74.00    128.41   1000.00       2.198
  JK-2                  30.87    245.25   1000.00       1.996
  WSC                  100.00    614.10   1498.97      15.558
  -----------------------------------------------------------
  System                59.80   1968.47   4180.09      29.897
  
  
  ********************
  Link Flow Summary
  ********************
  
  -----------------------------------------------------------------------------
                                 Maximum  Time of Max   Maximum    Max/    Max/
                                  |Flow|   Occurrence   |Veloc|    Full    Full
  Link                 Type          LPS  days hr:min     m/sec    Flow   Depth
  -----------------------------------------------------------------------------
  1                    CONDUIT   1498.97     0  01:56      3.69    0.52    0.51
  HS02004478WS02006287 CONDUIT   2296.25     0  01:51      2.63    0.64    1.00
  HS02004479HS02004480 CONDUIT    519.89     0  01:47      0.74    0.50    1.00
  HS02004480HS02004478 CONDUIT   2166.24     0  01:46      3.09    9.12    1.00
  HS02004770HS02004777 CONDUIT    797.42     0  01:45      1.14    1.46    1.00
  HS02004777HS02004785 CONDUIT    806.87     0  01:45      1.23    0.99    1.00
  HS02004785HS02004788 CONDUIT    756.60     0  01:45      1.35    5.70    1.00
  HS02004788HS02004792 CONDUIT    826.68     0  02:10      1.43    0.55    1.00
  HS02004792HS02004799 CONDUIT   1572.47     0  01:46      2.25    0.96    1.00
  HS02004799HS02004480 CONDUIT   1757.80     0  01:46      2.51    2.22    1.00
  HS02004802HS02004478 CONDUIT   1148.14     0  01:51      1.64    1.01    1.00
  HS02004807HS02004802 CONDUIT   1148.13     0  01:51      1.64    2.19    1.00
  HS02004817HS02004807 CONDUIT    756.50     0  01:52      1.08    0.45    1.00
  HS02004817HS02004824 CONDUIT    755.92     0  01:52      1.08    0.34    1.00
  HS02004824HS02004830 CONDUIT    721.11     0  01:46      1.03    0.94    1.00
  HS02004830HS02004837 CONDUIT    737.55     0  01:46      1.13    0.73    1.00
  HS02004837HS02004842 CONDUIT    929.69     0  01:46      1.33    0.55    1.00
  HS02004842HS02004848 CONDUIT    928.29     0  01:46      1.49    0.54    1.00
  HS02004848HS02004852 CONDUIT   1155.14     0  01:47      1.67    1.30    1.00
  HS02004852HS02004856 CONDUIT   1165.58     0  01:47      1.67    1.33    1.00
  HS02004856HS02004862 CONDUIT   1253.88     0  01:47      1.79    1.25    1.00
  HS02004862HS02004870 CONDUIT   1411.79     0  01:47      2.07    1.53    1.00
  HS02004870HS02004876 CONDUIT   1266.30     0  01:48      1.90    0.84    1.00
  HS02004876HS02004881 CONDUIT   1444.59     0  01:48      2.44   15.36    1.00
  HS02004881HS02006253 CONDUIT   1552.82     0  01:48      2.27    0.30    1.00
  HS02004901HS02004770 CONDUIT    265.79     0  02:05      0.38    1.00    1.00
  WS02001211WS02001212 CONDUIT    206.23     0  02:36      0.54    0.16    0.69
  WS02001212WS02001213 CONDUIT    209.47     0  02:36      1.04    0.32    0.56
  WS02001213WS02003059 CONDUIT    213.47     0  03:19      0.47    0.35    0.89
  WS02003059WS02003060 CONDUIT    219.33     0  03:22      0.66    0.14    0.81
  WS02003060WS02003069 CONDUIT   1497.15     0  01:54      2.08    0.59    0.61
  WS02003066WSF200     CONDUIT   1295.65     0  01:50      3.33    0.22    0.38
  WS02003067WS02003066 CONDUIT   1295.66     0  01:50      2.00    0.42    0.56
  WS02003069WS02003072 CONDUIT   1497.15     0  01:55      1.89    0.72    0.66
  WS02003072WS02003073 CONDUIT   1497.09     0  01:55      2.05    3.23    0.62
  WS02004138WS02004139 CONDUIT    190.00     0  00:31      2.17    0.04    0.41
  WS02004139WS02001211 CONDUIT    221.21     0  01:44      0.55    0.28    0.60
  WS02004401WS02004402 CONDUIT   1293.47     0  01:50      2.07    1.55    1.00
  WS02004402WS02004403 CONDUIT   1293.37     0  01:50      1.84    1.86    1.00
  WS02004403WS02004404 CONDUIT   1293.38     0  01:50      1.68    0.93    1.00
  WS02004404WS02004405 CONDUIT   1293.48     0  01:50      1.86   12.67    1.00
  WS02004405WS02004406 CONDUIT   1293.62     0  01:50      1.80    2.55    1.00
  WS02004406WS02004407 CONDUIT   1293.46     0  01:50      1.79    0.58    0.96
  WS02004407WS02004409 CONDUIT   1293.62     0  01:51      2.01    0.46    0.96
  WS02004409WS02004410 CONDUIT   1293.62     0  01:51      1.65    1.67    1.00
  WS02004410WS02004411 CONDUIT   1293.36     0  01:51      1.65    1.77    1.00
  WS02004411WS02004412 CONDUIT   1293.41     0  01:51      1.65    1.84    1.00
  WS02004412WS02004413 CONDUIT   1293.40     0  01:51      1.65    0.87    1.00
  WS02004413WS02003067 CONDUIT   1293.51     0  01:51      2.00    0.55    0.77
  WS02006109WS02006110 CONDUIT   1306.78     0  00:00      3.15    2.51    1.00
  WS02006110WS02006113 CONDUIT   1119.65     0  02:08      2.23    1.02    1.00
  WS02006111WS02006112 CONDUIT   2307.30     0  00:00      9.18    1.10    1.00
  WS02006112WS02006115 CONDUIT   2152.75     0  00:00      2.85    1.27    1.00
  WS02006113WS02006111 CONDUIT   1176.04     0  00:00      2.73    1.41    1.00
  WS02006115WS02006116 CONDUIT   1293.03     0  01:50      1.81    1.66    1.00
  WS02006116WS02004401 CONDUIT   1292.90     0  01:50      2.21    1.78    1.00
  WS02006228WS02006109 CONDUIT   1283.97     0  01:51      2.55    5.61    1.00
  WS02006229WS02006228 CONDUIT   1284.07     0  01:51      2.55    4.25    1.00
  WS02006230WS02006229 CONDUIT   1011.63     0  01:51      2.63   22.51    1.00
  WS02006231WS02006230 CONDUIT    453.29     0  02:01      1.34    6.88    1.00
  WS02006232WS02006231 CONDUIT    453.53     0  02:03      1.18    0.95    1.00
  WS02006234WS02006232 CONDUIT    453.14     0  01:48      1.18    0.92    1.00
  WS02006235WS02006234 CONDUIT    418.87     0  01:55      1.09    4.42    1.00
  WS02006238WS02006235 CONDUIT    415.80     0  02:17      1.23    0.93    1.00
  WS02006239WS02006238 CONDUIT    415.14     0  02:16      1.08    1.33    1.00
  WS02006240WS02006239 CONDUIT    414.85     0  02:17      1.09    1.31    1.00
  WS02006242WS02006240 CONDUIT    414.89     0  02:17      1.08    1.65    1.00
  WS02006243WS02006242 CONDUIT    376.37     0  05:18      1.14    0.80    1.00
  WS02006245WS02006243 CONDUIT    381.08     0  04:19      1.24    1.13    1.00
  WS02006247WS02006245 CONDUIT    390.80     0  04:17      1.19    3.10    1.00
  WS02006248WS02006247 CONDUIT    393.52     0  04:17      1.22    0.86    1.00
  WS02006249WS02006248 CONDUIT    401.77     0  04:17      1.27    2.20    1.00
  WS02006251WS02006249 CONDUIT   1344.73     0  01:48      3.49    3.88    1.00
  WS02006252WS02006251 CONDUIT   1298.45     0  00:05     20.66    4.77    1.00
  WS02006253WS02006251 CONDUIT   1584.25     0  01:48      4.12    4.75    1.00
  WS02006256WS02006235 CONDUIT    193.17     0  01:36      2.73    2.04    1.00
  WS02006280WS02006229 CONDUIT   2296.35     0  01:50      4.15    0.49    1.00
  WS02006284WS02006280 CONDUIT   2295.74     0  01:51      3.02    0.96    1.00
  WS02006287WS02006284 CONDUIT   2295.64     0  01:51      2.92    1.06    1.00
  WSF200WS02003060     CONDUIT   1293.97     0  01:50      2.45    0.29    0.50
  YS02001580YS02001583 CONDUIT    129.91     0  01:45      0.79    0.50    1.00
  YS02001583YS02001586 CONDUIT    184.17     0  01:45      0.81    0.28    1.00
  YS02001586YS02001590 CONDUIT    318.08     0  01:59      1.26    0.56    1.00
  YS02001590YS02001593 CONDUIT    318.12     0  01:59      1.13    2.00    1.00
  YS02001593YS02001596 CONDUIT    318.17     0  01:59      1.60    0.50    1.00
  YS02001596YS02001600 CONDUIT    318.19     0  01:59      1.13    0.62    1.00
  YS02001600YS02001601 CONDUIT    318.08     0  01:59      1.12    0.55    1.00
  YS02001601YS02001602 CONDUIT    550.43     0  01:45      1.95    1.99    1.00
  YS02001602YS02001605 CONDUIT    550.63     0  01:45      1.95   11.65    1.00
  YS02001605YS02001607 CONDUIT    551.13     0  01:45      1.95    3.02    1.00
  YS02001607YS02001610 CONDUIT    543.37     0  01:45      0.69    0.52    1.00
  YS02001610YS02001613 CONDUIT    549.41     0  01:45      0.70    0.63    1.00
  YS02001613YS02001616 CONDUIT    556.15     0  01:45      0.71    0.48    1.00
  YS02001616YS02001619 CONDUIT    524.21     0  01:45      0.68    0.91    1.00
  YS02001619YS02001622 CONDUIT    947.49     0  01:45      1.23    1.40    1.00
  YS02001622YS02001625 CONDUIT    947.04     0  01:45      1.21    0.51    1.00
  YS02001625YS02001629 CONDUIT    949.02     0  01:45      1.21    0.45    1.00
  YS02001629YS02163301 CONDUIT    924.69     0  01:47      1.18    1.14    1.00
  YS02001633YS02163601 CONDUIT   1433.34     0  01:47      1.82    1.50    1.00
  YS02001641YS02001644 CONDUIT   1432.57     0  01:47      1.82    4.63    1.00
  YS02001644YS02001647 CONDUIT   1897.18     0  01:47      2.43    1.11    1.00
  YS02001647YS02001649 CONDUIT   1880.15     0  01:47      2.39    0.99    1.00
  YS02001649YS02001757 CONDUIT   2169.16     0  01:47      2.76    1.32    1.00
  YS02001652YS02001649 CONDUIT    914.43     0  01:50      1.16    0.45    1.00
  YS02001655YS02001652 CONDUIT    914.09     0  01:50      1.38    0.44    1.00
  YS02001658YS02001655 CONDUIT    913.61     0  01:50      1.96    0.39    1.00
  YS02001661YS02001658 CONDUIT    913.74     0  01:50      2.41    0.36    1.00
  YS02001664YS02001661 CONDUIT    903.65     0  01:50      2.46    0.28    0.92
  YS02001745YS02001748 CONDUIT    625.57     0  01:49      2.34    0.24    1.00
  YS02001748YS02001751 CONDUIT    606.94     0  01:49      1.81    0.31    1.00
  YS02001751YS02001754 CONDUIT    608.12     0  01:49      1.43    0.29    1.00
  YS02001754YS02001757 CONDUIT    609.47     0  01:49      0.78    0.25    1.00
  YS02001757CaochengTiaoxuchi CONDUIT   3416.84     0  01:54      6.89    1.48    1.00
  YS02001759YS02001757 CONDUIT   1453.36     0  01:49      1.85    1.03    1.00
  YS02001762YS02001759 CONDUIT    843.26     0  01:49      1.07    0.97    1.00
  YS02001765YS02001762 CONDUIT    841.82     0  01:49      1.07    0.79    1.00
  YS02001767YS02001765 CONDUIT    840.96     0  01:49      1.07    1.06    1.00
  YS02001770YS02001767 CONDUIT    839.92     0  01:49      1.07    3.33    1.00
  YS02001774YS02001770 CONDUIT    496.54     0  01:48      0.63    0.32    1.00
  YS02001779YS02001774 CONDUIT    504.58     0  01:48      0.65    0.25    1.00
  YS02001783YS02001784 CONDUIT   1162.72     0  01:49      2.31    1.60    1.00
  YS02001784YS02001785 CONDUIT   1163.71     0  01:49      2.32    2.71    1.00
  YS02001786YS02001788 CONDUIT   1163.88     0  01:49      2.48    2.24    1.00
  YS02001788YS02001790 CONDUIT   1177.40     0  01:50      2.74    0.87    1.00
  YS02001790YS02001791 CONDUIT   1287.83     0  02:15      3.43    1.40    1.00
  YS02001791YS02001793 CONDUIT   1364.17     0  02:15      6.71    0.59    1.00
  YS02001793JiankangQianchi CONDUIT   1716.20     0  02:15     25.02    0.14    1.00
  YS02001882YS02001884 CONDUIT     60.00     0  01:46      0.14    0.07    1.00
  YS02001884YS02001887 CONDUIT    123.08     0  01:46      0.16    0.16    1.00
  YS02001887YS02001890 CONDUIT    701.66     0  01:50      0.89    1.20    1.00
  YS02001890YS02001895 CONDUIT    529.21     0  01:47      0.67    0.25    1.00
  YS02001895YS02001898 CONDUIT    530.98     0  01:47      0.68    0.92    1.00
  YS02001898YS02001901 CONDUIT    533.50     0  01:47      0.68    0.34    1.00
  YS02001901YS02001904 CONDUIT    534.82     0  01:47      0.68    0.83    1.00
  YS02001904YS02001907 CONDUIT    536.52     0  01:47      0.68    0.19    1.00
  YS02001907YS02006553 CONDUIT    741.87     0  02:16      0.82    0.87    1.00
  YS02001910YS02001907 CONDUIT   1195.58     0  01:52      1.52    0.67    1.00
  YS02001915YS02001910 CONDUIT   1195.77     0  01:52      1.52    0.59    1.00
  YS02001918YS02001915 CONDUIT    553.75     0  01:47      0.71    0.31    1.00
  YS02001920YS02001918 CONDUIT    531.10     0  01:47      0.68    0.51    1.00
  YS02001923YS02001920 CONDUIT    515.74     0  01:47      0.72    0.23    1.00
  YS02001926YS02001923 CONDUIT    697.09     0  01:47      1.13    1.00    1.00
  YS02001929YS02001926 CONDUIT    498.59     0  01:48      1.19    0.24    1.00
  YS02006553YS02006556 CONDUIT    742.01     0  02:16      0.94    0.63    1.00
  YS02006556YS02006558 CONDUIT    744.04     0  02:16      0.95    0.59    1.00
  YS02006558YS02006561 CONDUIT   1166.31     0  01:47      4.12    2.58    1.00
  YS02006561YS02001783 CONDUIT   1162.85     0  01:49      2.31    0.60    1.00
  YS02163301YS02001633 CONDUIT    923.99     0  01:46      1.18    0.87    1.00
  YS02163601YS02164001 CONDUIT   1432.87     0  01:47      1.82    1.27    1.00
  YS02164001YS02001641 CONDUIT   1432.06     0  01:47      1.82    1.96    1.00
  YSB1154YSB6556       CONDUIT    370.21     0  01:51      0.96    0.67    1.00
  YSB1171HS02004479    CONDUIT    521.44     0  01:47      1.04    0.35    1.00
  YSB1174YSB1171       CONDUIT    329.23     0  01:50      0.86    0.50    1.00
  YSB6556YSB1171       CONDUIT    370.44     0  01:51      0.96    0.38    1.00
  CC-R1                PUMP       683.00     0  01:37              1.00
  CC-R2                PUMP       683.00     0  00:20              1.00
  CC-S1                PUMP       200.00     0  00:05              1.00
  CC-S2                PUMP       200.00     0  01:30              1.00
  JK-R1                PUMP      1000.00     0  00:05              1.00
  JK-R2                PUMP      1000.00     0  01:47              1.00
  JK-S                 PUMP       300.00     0  01:30              1.00
  XR-1                 PUMP        95.00     0  00:10              1.00
  XR-2                 PUMP        95.00     0  00:29              1.00
  XR-3                 PUMP         0.00     0  00:00              0.00
  XR-4                 PUMP         0.00     0  00:00              0.00
  
  
  ***************************
  Flow Classification Summary
  ***************************
  
  -------------------------------------------------------------------------------------
                      Adjusted    ---------- Fraction of Time in Flow Class ---------- 
                       /Actual         Up    Down  Sub   Sup   Up    Down  Norm  Inlet 
  Conduit               Length    Dry  Dry   Dry   Crit  Crit  Crit  Crit  Ltd   Ctrl  
  -------------------------------------------------------------------------------------
  1                       1.00   0.00  0.00  0.00  0.00  1.00  0.00  0.00  0.52  0.00
  HS02004478WS02006287    1.00   0.16  0.00  0.00  0.67  0.17  0.00  0.00  0.60  0.00
  HS02004479HS02004480    1.00   0.04  0.00  0.00  0.96  0.00  0.00  0.00  0.11  0.00
  HS02004480HS02004478    1.00   0.13  0.00  0.00  0.62  0.00  0.00  0.25  0.00  0.00
  HS02004770HS02004777    1.00   0.00  0.13  0.00  0.87  0.00  0.00  0.00  0.03  0.00
  HS02004777HS02004785    1.00   0.00  0.00  0.00  1.00  0.00  0.00  0.00  0.12  0.00
  HS02004785HS02004788    1.00   0.00  0.00  0.00  1.00  0.00  0.00  0.00  0.00  0.00
  HS02004788HS02004792    1.00   0.00  0.00  0.00  0.99  0.01  0.00  0.00  0.90  0.00
  HS02004792HS02004799    1.00   0.00  0.00  0.00  0.99  0.01  0.00  0.00  0.86  0.00
  HS02004799HS02004480    1.00   0.00  0.03  0.00  0.84  0.00  0.12  0.00  0.00  0.00
  HS02004802HS02004478    1.00   0.13  0.01  0.00  0.86  0.00  0.00  0.00  0.02  0.00
  HS02004807HS02004802    1.00   0.13  0.00  0.00  0.85  0.00  0.00  0.02  0.00  0.00
  HS02004817HS02004807    1.00   0.00  0.13  0.00  0.87  0.00  0.00  0.00  0.01  0.00
  HS02004817HS02004824    1.00   0.00  0.00  0.00  1.00  0.00  0.00  0.00  0.81  0.00
  HS02004824HS02004830    1.00   0.00  0.00  0.00  1.00  0.00  0.00  0.00  0.01  0.00
  HS02004830HS02004837    1.00   0.00  0.00  0.00  1.00  0.00  0.00  0.00  0.88  0.00
  HS02004837HS02004842    1.00   0.00  0.00  0.00  0.99  0.01  0.00  0.00  0.11  0.00
  HS02004842HS02004848    1.00   0.00  0.13  0.00  0.87  0.00  0.00  0.00  0.56  0.00
  HS02004848HS02004852    1.00   0.13  0.00  0.00  0.87  0.00  0.00  0.00  0.71  0.00
  HS02004852HS02004856    1.00   0.13  0.01  0.00  0.86  0.00  0.00  0.00  0.66  0.00
  HS02004856HS02004862    1.00   0.00  0.17  0.00  0.83  0.00  0.00  0.00  0.74  0.00
  HS02004862HS02004870    1.00   0.00  0.00  0.00  1.00  0.00  0.00  0.00  0.03  0.00
  HS02004870HS02004876    1.00   0.00  0.00  0.00  1.00  0.00  0.00  0.00  0.86  0.00
  HS02004876HS02004881    1.00   0.01  0.00  0.00  0.85  0.15  0.00  0.00  0.00  0.00
  HS02004881HS02006253    1.00   0.02  0.03  0.00  0.48  0.00  0.00  0.47  0.41  0.00
  HS02004901HS02004770    1.00   0.13  0.00  0.00  0.87  0.00  0.00  0.00  0.00  0.00
  WS02001211WS02001212    1.00   0.00  0.02  0.00  0.98  0.00  0.00  0.00  0.00  0.00
  WS02001212WS02001213    1.00   0.02  0.00  0.00  0.48  0.00  0.49  0.00  0.00  0.00
  WS02001213WS02003059    1.00   0.00  0.01  0.00  0.99  0.00  0.00  0.00  0.00  0.00
  WS02003059WS02003060    1.00   0.00  0.00  0.00  1.00  0.00  0.00  0.00  0.03  0.00
  WS02003060WS02003069    1.00   0.00  0.00  0.00  0.97  0.03  0.00  0.00  0.41  0.00
  WS02003066WSF200        1.00   0.06  0.00  0.00  0.00  0.94  0.00  0.00  0.68  0.00
  WS02003067WS02003066    1.00   0.05  0.01  0.00  0.94  0.00  0.00  0.00  0.00  0.00
  WS02003069WS02003072    1.00   0.00  0.00  0.00  0.99  0.01  0.00  0.00  0.46  0.00
  WS02003072WS02003073    1.00   0.00  0.00  0.00  0.00  0.00  0.00  1.00  0.00  0.00
  WS02004138WS02004139    1.00   0.02  0.00  0.00  0.97  0.01  0.00  0.00  0.98  0.00
  WS02004139WS02001211    1.00   0.00  0.01  0.00  0.99  0.00  0.00  0.00  0.00  0.00
  WS02004401WS02004402    1.00   0.00  0.00  0.00  1.00  0.00  0.00  0.00  0.00  0.00
  WS02004402WS02004403    1.00   0.00  0.00  0.00  1.00  0.00  0.00  0.00  0.00  0.00
  WS02004403WS02004404    1.00   0.00  0.00  0.00  1.00  0.00  0.00  0.00  0.00  0.00
  WS02004404WS02004405    1.00   0.00  0.00  0.00  1.00  0.00  0.00  0.00  0.00  0.00
  WS02004405WS02004406    1.00   0.00  0.00  0.00  1.00  0.00  0.00  0.00  0.00  0.00
  WS02004406WS02004407    1.00   0.00  0.01  0.00  0.99  0.00  0.00  0.00  0.01  0.00
  WS02004407WS02004409    1.00   0.01  0.00  0.00  0.98  0.01  0.00  0.00  0.87  0.00
  WS02004409WS02004410    1.00   0.01  0.00  0.00  0.99  0.00  0.00  0.00  0.00  0.00
  WS02004410WS02004411    1.00   0.01  0.00  0.00  0.99  0.00  0.00  0.00  0.01  0.00
  WS02004411WS02004412    1.00   0.01  0.00  0.00  0.99  0.00  0.00  0.00  0.00  0.00
  WS02004412WS02004413    1.00   0.01  0.00  0.00  0.99  0.00  0.00  0.00  0.02  0.00
  WS02004413WS02003067    1.00   0.01  0.04  0.00  0.00  0.00  0.95  0.00  0.00  0.00
  WS02006109WS02006110    1.00   0.00  0.00  0.00  1.00  0.00  0.00  0.00  0.00  0.00
  WS02006110WS02006113    1.00   0.00  0.00  0.00  1.00  0.00  0.00  0.00  0.00  0.00
  WS02006111WS02006112    1.00   0.00  0.00  0.00  1.00  0.00  0.00  0.00  0.78  0.00
  WS02006112WS02006115    1.00   0.00  0.00  0.00  1.00  0.00  0.00  0.00  0.00  0.00
  WS02006113WS02006111    1.00   0.00  0.00  0.00  0.20  0.80  0.00  0.00  0.10  0.00
  WS02006115WS02006116    1.00   0.00  0.00  0.00  1.00  0.00  0.00  0.00  0.00  0.00
  WS02006116WS02004401    1.00   0.00  0.00  0.00  1.00  0.00  0.00  0.00  0.00  0.00
  WS02006228WS02006109    1.00   0.00  0.00  0.00  1.00  0.00  0.00  0.00  0.00  0.00
  WS02006229WS02006228    1.00   0.00  0.00  0.00  1.00  0.00  0.00  0.00  0.00  0.00
  WS02006230WS02006229    1.00   0.00  0.00  0.00  1.00  0.00  0.00  0.00  0.00  0.00
  WS02006231WS02006230    1.00   0.00  0.00  0.00  0.35  0.00  0.65  0.00  0.00  0.00
  WS02006232WS02006231    1.00   0.00  0.00  0.00  0.99  0.00  0.00  0.00  0.01  0.00
  WS02006234WS02006232    1.00   0.00  0.01  0.00  0.99  0.00  0.00  0.00  0.19  0.00
  WS02006235WS02006234    1.00   0.02  0.00  0.00  0.71  0.00  0.27  0.00  0.00  0.00
  WS02006238WS02006235    1.00   0.02  0.00  0.00  0.98  0.00  0.00  0.00  0.00  0.00
  WS02006239WS02006238    1.00   0.02  0.00  0.00  0.98  0.00  0.00  0.00  0.24  0.00
  WS02006240WS02006239    1.00   0.02  0.00  0.00  0.62  0.00  0.00  0.37  0.01  0.00
  WS02006242WS02006240    1.00   0.01  0.00  0.00  0.98  0.00  0.01  0.00  0.00  0.00
  WS02006243WS02006242    1.00   0.01  0.00  0.00  0.98  0.00  0.00  0.01  0.42  0.00
  WS02006245WS02006243    1.00   0.01  0.00  0.00  0.92  0.00  0.00  0.07  0.00  0.00
  WS02006247WS02006245    1.00   0.01  0.00  0.00  0.98  0.00  0.00  0.01  0.00  0.00
  WS02006248WS02006247    1.00   0.01  0.00  0.00  0.99  0.00  0.00  0.00  0.40  0.00
  WS02006249WS02006248    1.00   0.00  0.01  0.00  0.55  0.00  0.44  0.00  0.00  0.00
  WS02006251WS02006249    1.00   0.00  0.00  0.00  1.00  0.00  0.00  0.00  0.43  0.00
  WS02006252WS02006251    1.00   0.01  0.16  0.00  0.20  0.00  0.63  0.00  0.00  0.00
  WS02006253WS02006251    1.00   0.01  0.00  0.00  0.97  0.00  0.02  0.00  0.00  0.00
  WS02006256WS02006235    1.00   0.02  0.00  0.00  0.98  0.00  0.00  0.00  0.00  0.00
  WS02006280WS02006229    1.00   0.14  0.00  0.00  0.15  0.05  0.00  0.66  0.01  0.00
  WS02006284WS02006280    1.00   0.14  0.00  0.00  0.10  0.01  0.00  0.75  0.00  0.00
  WS02006287WS02006284    1.00   0.10  0.06  0.00  0.58  0.26  0.00  0.00  0.66  0.00
  WSF200WS02003060        1.00   0.00  0.06  0.00  0.65  0.29  0.00  0.00  0.47  0.00
  YS02001580YS02001583    1.00   0.22  0.59  0.00  0.19  0.00  0.00  0.00  0.68  0.00
  YS02001583YS02001586    1.00   0.42  0.33  0.00  0.25  0.00  0.00  0.00  0.69  0.00
  YS02001586YS02001590    1.00   0.13  0.00  0.00  0.42  0.04  0.00  0.41  0.35  0.00
  YS02001590YS02001593    1.00   0.13  0.01  0.00  0.11  0.00  0.75  0.00  0.00  0.00
  YS02001593YS02001596    1.00   0.13  0.00  0.00  0.15  0.03  0.00  0.69  0.06  0.00
  YS02001596YS02001600    1.00   0.14  0.00  0.00  0.23  0.01  0.00  0.63  0.04  0.00
  YS02001600YS02001601    1.00   0.13  0.01  0.00  0.86  0.00  0.00  0.00  0.59  0.00
  YS02001601YS02001602    1.00   0.13  0.01  0.00  0.87  0.00  0.00  0.00  0.00  0.00
  YS02001602YS02001605    1.00   0.13  0.00  0.00  0.86  0.00  0.00  0.00  0.00  0.00
  YS02001605YS02001607    1.00   0.14  0.00  0.00  0.86  0.00  0.00  0.00  0.00  0.00
  YS02001607YS02001610    1.00   0.13  0.01  0.00  0.86  0.00  0.00  0.00  0.01  0.00
  YS02001610YS02001613    1.00   0.13  0.00  0.00  0.87  0.00  0.00  0.00  0.00  0.00
  YS02001613YS02001616    1.00   0.13  0.00  0.00  0.87  0.00  0.00  0.00  0.00  0.00
  YS02001616YS02001619    1.00   0.13  0.00  0.00  0.87  0.00  0.00  0.00  0.00  0.00
  YS02001619YS02001622    1.00   0.13  0.00  0.00  0.87  0.00  0.00  0.00  0.28  0.00
  YS02001622YS02001625    1.00   0.13  0.00  0.00  0.87  0.00  0.00  0.00  0.04  0.00
  YS02001625YS02001629    1.00   0.13  0.05  0.00  0.25  0.00  0.58  0.00  0.00  0.00
  YS02001629YS02163301    1.00   0.15  0.01  0.00  0.84  0.00  0.00  0.00  0.00  0.00
  YS02001633YS02163601    1.00   0.00  0.01  0.00  0.99  0.00  0.00  0.00  0.15  0.00
  YS02001641YS02001644    1.00   0.00  0.01  0.00  0.99  0.00  0.00  0.00  0.00  0.00
  YS02001644YS02001647    1.00   0.00  0.17  0.00  0.83  0.00  0.00  0.00  0.00  0.00
  YS02001647YS02001649    1.00   0.00  0.17  0.00  0.72  0.11  0.00  0.00  0.51  0.00
  YS02001649YS02001757    1.00   0.00  0.00  0.00  0.89  0.11  0.00  0.00  0.53  0.00
  YS02001652YS02001649    1.00   0.00  0.00  0.00  0.97  0.03  0.00  0.00  0.63  0.00
  YS02001655YS02001652    1.00   0.00  0.00  0.00  0.31  0.01  0.00  0.68  0.05  0.00
  YS02001658YS02001655    1.00   0.00  0.14  0.00  0.76  0.10  0.00  0.00  0.58  0.00
  YS02001661YS02001658    1.00   0.14  0.00  0.00  0.58  0.28  0.00  0.00  0.74  0.00
  YS02001664YS02001661    1.00   0.13  0.00  0.00  0.73  0.14  0.00  0.00  0.86  0.00
  YS02001745YS02001748    1.00   0.00  0.00  0.00  0.17  0.04  0.00  0.80  0.18  0.00
  YS02001748YS02001751    1.00   0.00  0.00  0.00  0.91  0.09  0.00  0.00  0.68  0.00
  YS02001751YS02001754    1.00   0.00  0.00  0.00  0.30  0.00  0.00  0.69  0.05  0.00
  YS02001754YS02001757    1.00   0.00  0.00  0.00  1.00  0.00  0.00  0.00  0.68  0.00
  YS02001757CaochengTiaoxuchi    1.00   0.00  0.00  0.00  0.56  0.44  0.00  0.00  0.25  0.00
  YS02001759YS02001757    1.00   0.00  0.00  0.00  1.00  0.00  0.00  0.00  0.58  0.00
  YS02001762YS02001759    1.00   0.00  0.00  0.00  1.00  0.00  0.00  0.00  0.04  0.00
  YS02001765YS02001762    1.00   0.00  0.00  0.00  1.00  0.00  0.00  0.00  0.59  0.00
  YS02001767YS02001765    1.00   0.00  0.00  0.00  1.00  0.00  0.00  0.00  0.00  0.00
  YS02001770YS02001767    1.00   0.00  0.00  0.00  1.00  0.00  0.00  0.00  0.00  0.00
  YS02001774YS02001770    1.00   0.00  0.13  0.00  0.70  0.00  0.17  0.00  0.03  0.00
  YS02001779YS02001774    1.00   0.00  0.00  0.00  1.00  0.00  0.00  0.00  0.65  0.00
  YS02001783YS02001784    1.00   0.00  0.18  0.00  0.82  0.00  0.00  0.00  0.56  0.00
  YS02001784YS02001785    1.00   0.00  0.00  0.00  1.00  0.00  0.00  0.00  0.16  0.00
  YS02001786YS02001788    1.00   0.00  0.00  0.00  0.79  0.21  0.00  0.00  0.00  0.00
  YS02001788YS02001790    1.00   0.00  0.00  0.00  0.23  0.77  0.00  0.00  0.80  0.00
  YS02001790YS02001791    1.00   0.00  0.00  0.00  0.05  0.95  0.00  0.00  0.16  0.00
  YS02001791YS02001793    1.00   0.00  0.00  0.00  0.03  0.97  0.00  0.00  0.00  0.00
  YS02001793JiankangQianchi    1.00   0.00  0.00  0.00  0.31  0.69  0.00  0.00  0.31  0.00
  YS02001882YS02001884    1.00   0.15  0.01  0.00  0.84  0.00  0.00  0.00  0.00  0.00
  YS02001884YS02001887    1.00   0.06  0.05  0.00  0.89  0.00  0.00  0.00  0.00  0.00
  YS02001887YS02001890    1.00   0.00  0.00  0.00  0.97  0.00  0.03  0.00  0.00  0.00
  YS02001890YS02001895    1.00   0.00  0.16  0.00  0.84  0.00  0.00  0.00  0.00  0.00
  YS02001895YS02001898    1.00   0.16  0.00  0.00  0.82  0.00  0.02  0.00  0.00  0.00
  YS02001898YS02001901    1.00   0.17  0.00  0.00  0.83  0.00  0.00  0.00  0.01  0.00
  YS02001901YS02001904    1.00   0.16  0.00  0.00  0.84  0.00  0.00  0.00  0.00  0.00
  YS02001904YS02001907    1.00   0.00  0.16  0.00  0.84  0.00  0.00  0.00  0.00  0.00
  YS02001907YS02006553    1.00   0.00  0.02  0.00  0.98  0.00  0.00  0.00  0.00  0.00
  YS02001910YS02001907    1.00   0.00  0.00  0.00  0.97  0.00  0.00  0.03  0.12  0.00
  YS02001915YS02001910    1.00   0.00  0.00  0.00  0.97  0.03  0.00  0.00  0.16  0.00
  YS02001918YS02001915    1.00   0.00  0.00  0.00  0.98  0.02  0.00  0.00  0.76  0.00
  YS02001920YS02001918    1.00   0.00  0.00  0.00  1.00  0.00  0.00  0.00  0.01  0.00
  YS02001923YS02001920    1.00   0.00  0.00  0.00  1.00  0.00  0.00  0.00  0.92  0.00
  YS02001926YS02001923    1.00   0.00  0.07  0.00  0.06  0.00  0.86  0.00  0.00  0.00
  YS02001929YS02001926    1.00   0.00  0.13  0.00  0.87  0.00  0.00  0.00  0.82  0.00
  YS02006553YS02006556    1.00   0.01  0.00  0.00  0.99  0.00  0.00  0.00  0.03  0.00
  YS02006556YS02006558    1.00   0.00  0.00  0.00  1.00  0.00  0.00  0.00  0.00  0.00
  YS02006558YS02006561    1.00   0.18  0.00  0.00  0.06  0.76  0.00  0.00  0.19  0.00
  YS02006561YS02001783    1.00   0.18  0.00  0.00  0.09  0.74  0.00  0.00  0.69  0.00
  YS02163301YS02001633    1.00   0.00  0.15  0.00  0.85  0.00  0.00  0.00  0.00  0.00
  YS02163601YS02164001    1.00   0.00  0.08  0.00  0.92  0.00  0.00  0.00  0.00  0.00
  YS02164001YS02001641    1.00   0.01  0.07  0.00  0.92  0.00  0.00  0.00  0.05  0.00
  YSB1154YSB6556          1.00   0.12  0.00  0.00  0.88  0.00  0.00  0.00  0.02  0.00
  YSB1171HS02004479       1.00   0.04  0.00  0.00  0.95  0.00  0.00  0.01  0.10  0.00
  YSB1174YSB1171          1.00   0.05  0.04  0.00  0.91  0.00  0.00  0.00  0.00  0.00
  YSB6556YSB1171          1.00   0.04  0.08  0.00  0.88  0.00  0.00  0.00  0.00  0.00
  
  
  *************************
  Conduit Surcharge Summary
  *************************
  
  ----------------------------------------------------------------------------
                                                           Hours        Hours 
                         --------- Hours Full --------   Above Full   Capacity
  Conduit                Both Ends  Upstream  Dnstream   Normal Flow   Limited
  ----------------------------------------------------------------------------
  HS02004478WS02006287        0.45      0.45      0.63      0.01         0.01
  HS02004479HS02004480        0.64      0.64      0.66      0.01         0.01
  HS02004480HS02004478        0.56      0.63      0.56      1.69         0.56
  HS02004770HS02004777        0.54      0.54      0.55      0.12         0.09
  HS02004777HS02004785        0.49      0.49      0.55      0.01         0.01
  HS02004785HS02004788        0.48      0.49      0.48      1.49         0.46
  HS02004788HS02004792        0.48      0.48      0.60      0.01         0.01
  HS02004792HS02004799        0.60      0.60      0.72      0.01         0.01
  HS02004799HS02004480        0.63      0.63      0.72      0.83         0.01
  HS02004802HS02004478        0.57      0.57      0.64      0.03         0.01
  HS02004807HS02004802        0.62      0.62      0.64      0.22         0.23
  HS02004817HS02004807        0.62      0.62      1.24      0.01         0.01
  HS02004817HS02004824        0.47      0.47      1.24      0.01         0.01
  HS02004824HS02004830        0.44      0.44      0.47      0.01         0.01
  HS02004830HS02004837        0.40      0.40      0.44      0.01         0.01
  HS02004837HS02004842        0.40      0.40      0.54      0.01         0.01
  HS02004842HS02004848        0.36      0.36      0.54      0.01         0.01
  HS02004848HS02004852        0.36      0.36      0.39      0.02         0.01
  HS02004852HS02004856        0.39      0.39      0.40      0.02         0.01
  HS02004856HS02004862        0.35      0.35      0.40      0.01         0.01
  HS02004862HS02004870        0.40      0.40      0.41      0.14         0.11
  HS02004870HS02004876        0.41      0.41      0.47      0.01         0.01
  HS02004876HS02004881        0.43      0.47      0.43      1.51         0.43
  HS02004881HS02006253        0.43      0.43      1.59      0.01         0.01
  HS02004901HS02004770        0.54      0.54      0.55      0.01         0.01
  WS02003072WS02003073        0.01      0.01      0.01      3.80         0.01
  WS02004401WS02004402        1.64      1.64      1.66      1.46         1.45
  WS02004402WS02004403        1.66      1.66      1.67      1.65         1.63
  WS02004403WS02004404        1.67      1.67      1.74      0.01         0.01
  WS02004404WS02004405        1.73      1.74      1.73      4.56         1.73
  WS02004405WS02004406        1.71      1.73      1.71      1.89         1.71
  WS02004406WS02004407        0.01      0.01      1.71      0.01         0.01
  WS02004407WS02004409        0.01      0.01      0.95      0.01         0.01
  WS02004409WS02004410        0.91      0.95      0.91      1.57         0.90
  WS02004410WS02004411        0.84      0.91      0.84      1.62         0.84
  WS02004411WS02004412        0.75      0.84      0.75      1.64         0.75
  WS02004412WS02004413        0.75      0.75      1.35      0.01         0.01
  WS02004413WS02003067        0.01      0.01      1.35      0.01         0.01
  WS02006109WS02006110        1.84      1.85      2.28      1.85         0.01
  WS02006110WS02006113        1.30      1.30      2.20      0.29         0.01
  WS02006111WS02006112        1.27      1.27      3.14      0.01         0.01
  WS02006112WS02006115        1.57      1.57      1.93      0.01         0.01
  WS02006113WS02006111        1.29      1.30      1.29      1.46         1.29
  WS02006115WS02006116        1.59      1.59      1.59      1.58         1.55
  WS02006116WS02004401        1.64      1.64      1.64      1.64         1.61
  WS02006228WS02006109        2.11      2.28      2.11      3.86         2.11
  WS02006229WS02006228        2.10      2.14      2.10      2.93         2.10
  WS02006230WS02006229        2.44      2.70      2.44      4.59         1.45
  WS02006231WS02006230        1.74      1.74      1.80      4.29         0.96
  WS02006232WS02006231        1.79      1.79      2.05      0.01         0.13
  WS02006234WS02006232        1.89      1.89      2.05      0.01         0.01
  WS02006235WS02006234        1.86      1.86      1.90      4.06         0.95
  WS02006238WS02006235        1.92      1.92      2.01      0.01         0.30
  WS02006239WS02006238        1.92      1.95      1.94      1.05         0.02
  WS02006240WS02006239        1.84      1.85      1.86      1.04         0.01
  WS02006242WS02006240        1.83      1.83      2.03      1.77         0.83
  WS02006243WS02006242        1.80      1.80      1.95      0.01         0.01
  WS02006245WS02006243        1.76      1.76      1.78      0.28         0.01
  WS02006247WS02006245        1.75      1.79      1.75      3.84         0.61
  WS02006248WS02006247        1.71      1.71      1.77      0.01         0.01
  WS02006249WS02006248        1.70      1.70      1.73      2.78         0.01
  WS02006251WS02006249        1.70      1.71      1.73      1.49         1.21
  WS02006252WS02006251        1.90      1.91      1.96      0.34         0.01
  WS02006253WS02006251        1.70      1.70      1.74      0.77         0.01
  WS02006256WS02006235        4.31      4.31      5.56      0.37         0.01
  WS02006280WS02006229        0.75      0.75      0.90      0.01         0.01
  WS02006284WS02006280        0.66      0.66      0.74      0.01         0.01
  WS02006287WS02006284        0.56      0.56      0.67      0.26         0.26
  YS02001580YS02001583        0.57      0.57      0.62      0.01         0.01
  YS02001583YS02001586        0.58      0.58      0.70      0.01         0.01
  YS02001586YS02001590        0.71      0.71      0.78      0.01         0.01
  YS02001590YS02001593        0.78      0.78      0.80      0.85         0.01
  YS02001593YS02001596        0.79      0.79      0.91      0.01         0.01
  YS02001596YS02001600        0.97      0.97      1.19      0.01         0.01
  YS02001600YS02001601        1.39      1.39      1.68      0.01         0.01
  YS02001601YS02001602        1.61      1.61      1.71      1.06         0.01
  YS02001602YS02001605        1.59      1.59      1.61      2.25         0.01
  YS02001605YS02001607        1.56      1.59      1.59      1.43         1.35
  YS02001607YS02001610        0.73      0.73      0.78      0.01         0.01
  YS02001610YS02001613        0.73      0.73      0.78      0.01         0.01
  YS02001613YS02001616        0.68      0.68      0.73      0.01         0.01
  YS02001616YS02001619        0.66      0.66      0.68      0.01         0.01
  YS02001619YS02001622        0.65      0.66      0.65      0.80         0.63
  YS02001622YS02001625        0.65      0.65      1.35      0.01         0.01
  YS02001625YS02001629        0.56      0.56      1.35      0.01         0.01
  YS02001629YS02163301        1.42      1.42      1.44      0.35         0.33
  YS02001633YS02163601        1.46      1.46      1.52      0.50         0.50
  YS02001641YS02001644        1.46      1.47      1.46      1.60         1.39
  YS02001644YS02001647        0.45      0.45      1.46      0.04         0.01
  YS02001647YS02001649        0.45      0.45      1.22      0.01         0.01
  YS02001649YS02001757        1.22      1.22      1.58      0.38         0.37
  YS02001652YS02001649        0.36      0.36      1.22      0.01         0.01
  YS02001655YS02001652        0.21      0.21      0.33      0.01         0.01
  YS02001658YS02001655        0.12      0.12      0.21      0.01         0.01
  YS02001661YS02001658        0.01      0.01      0.12      0.01         0.01
  YS02001664YS02001661        0.01      0.01      0.02      0.01         0.01
  YS02001745YS02001748        0.01      0.01      0.03      0.01         0.01
  YS02001748YS02001751        0.09      0.09      0.14      0.01         0.01
  YS02001751YS02001754        0.14      0.14      0.21      0.01         0.01
  YS02001754YS02001757        0.24      0.24      1.58      0.01         0.01
  YS02001757CaochengTiaoxuchi        1.28      1.58      2.29      0.43         0.11
  YS02001759YS02001757        1.10      1.10      1.58      0.01         0.02
  YS02001762YS02001759        0.96      0.96      1.10      0.01         0.03
  YS02001765YS02001762        0.77      0.77      0.96      0.01         0.01
  YS02001767YS02001765        0.63      0.63      0.77      0.02         0.05
  YS02001770YS02001767        0.61      0.62      0.63      0.54         0.36
  YS02001774YS02001770        0.51      0.51      0.89      0.01         0.01
  YS02001779YS02001774        0.23      0.23      0.89      0.01         0.01
  YS02001783YS02001784        0.53      0.55      0.53      0.67         0.53
  YS02001784YS02001785        0.47      0.53      0.47      0.90         0.47
  YS02001786YS02001788        0.24      0.47      0.24      0.77         0.24
  YS02001788YS02001790        0.24      0.24      0.26      0.01         0.01
  YS02001790YS02001791        0.25      0.26      0.25      0.52         0.24
  YS02001791YS02001793        0.25      0.25      0.27      0.01         0.01
  YS02001793JiankangQianchi        0.27      0.27      0.49      0.01         0.01
  YS02001882YS02001884        0.50      0.50      0.52      0.01         0.01
  YS02001884YS02001887        0.53      0.53      0.54      0.01         0.01
  YS02001887YS02001890        0.55      0.55      0.56      0.09         0.01
  YS02001890YS02001895        0.49      0.49      0.58      0.01         0.01
  YS02001895YS02001898        0.49      0.49      0.49      0.01         0.01
  YS02001898YS02001901        0.50      0.50      0.53      0.01         0.01
  YS02001901YS02001904        0.52      0.52      0.53      0.01         0.01
  YS02001904YS02001907        0.52      0.52      0.75      0.01         0.01
  YS02001907YS02006553        0.91      0.91      0.98      0.01         0.01
  YS02001910YS02001907        0.57      0.57      0.73      0.01         0.01
  YS02001915YS02001910        0.50      0.50      0.57      0.01         0.01
  YS02001918YS02001915        0.43      0.43      0.50      0.01         0.01
  YS02001920YS02001918        0.43      0.43      0.44      0.01         0.01
  YS02001923YS02001920        0.37      0.37      0.44      0.01         0.01
  YS02001926YS02001923        0.02      0.02      0.04      0.01         0.01
  YS02001929YS02001926        0.01      0.01      0.04      0.01         0.01
  YS02006553YS02006556        0.65      0.65      0.75      0.01         0.01
  YS02006556YS02006558        0.70      0.70      0.76      0.01         0.01
  YS02006558YS02006561        0.48      0.64      0.48      0.85         0.48
  YS02006561YS02001783        0.43      0.43      0.55      0.01         0.01
  YS02163301YS02001633        1.44      1.44      1.48      0.01         0.01
  YS02163601YS02164001        1.46      1.46      1.52      0.26         0.01
  YS02164001YS02001641        1.46      1.46      1.47      0.74         0.73
  YSB1154YSB6556              0.69      0.69      0.85      0.01         0.01
  YSB1171HS02004479           0.59      0.59      0.86      0.01         0.01
  YSB1174YSB1171              0.76      0.76      1.13      0.01         0.01
  YSB6556YSB1171              0.69      0.69      1.33      0.01         0.01
  
  
  ***************
  Pumping Summary
  ***************
  
  ---------------------------------------------------------------------------------------------------------
                                                  Min       Avg       Max     Total     Power    % Time Off
                        Percent   Number of      Flow      Flow      Flow    Volume     Usage    Pump Curve
  Pump                 Utilized   Start-Ups       LPS       LPS       LPS  10^6 ltr     Kw-hr    Low   High
  ---------------------------------------------------------------------------------------------------------
  CC-R1                   47.92          12      0.00    478.10    683.00     3.588     62.88    0.0   80.0
  CC-R2                   67.71          10      0.00    502.61    683.00     6.557    112.93    0.0   82.1
  CC-S1                   33.33          11      0.00    196.87    200.00     1.863     11.26    0.0   19.8
  CC-S2                   25.00           9      0.00    188.36    200.00     1.245      8.04    0.0   41.7
  JK-R1                   55.21           9      0.00    128.41   1000.00     2.204      7.62    0.0    0.0
  JK-R2                   21.87           8      0.00    245.25   1000.00     1.998     15.68    0.0    0.0
  JK-S                    45.83          10      0.00     63.06    300.00     0.763     16.09    0.0    0.0
  XR-1                    97.91           1      0.00     95.00     95.00     2.679      9.63    0.0    0.0
  XR-2                    93.95           1      0.00     95.00     95.00     2.570      8.79    0.0    0.0
  XR-3                     0.00           0      0.00      0.00      0.00     0.000      0.00    0.0    0.0
  XR-4                     0.00           0      0.00      0.00      0.00     0.000      0.00    0.0    0.0
  

  Analysis begun on:  Thu Jun 15 19:52:46 2023
  Analysis ended on:  Thu Jun 15 19:52:58 2023
  Total elapsed time: 00:00:12