
  OWA STORM WATER MANAGEMENT MODEL - VERSION v5.2.3 (OWA 2023-03-28)
  ------------------------------------------------------------

  WARNING 04: minimum elevation drop used for Conduit WS02004404WS02004405
  WARNING 03: negative offset ignored for Link YS02001904YS02001907
  
  ****************
  Analysis Options
  ****************
  Flow Units ............... LPS
  Process Models:
    Rainfall/Runoff ........ YES
    RDII ................... NO
    Snowmelt ............... NO
    Groundwater ............ NO
    Flow Routing ........... YES
    Ponding Allowed ........ NO
    Water Quality .......... NO
  Infiltration Method ...... HORTON
  Flow Routing Method ...... DYNWAVE
  Surcharge Method ......... EXTRAN
  Starting Date ............ 08/28/2015 08:00:00
  Ending Date .............. 08/28/2015 16:00:00
  Antecedent Dry Days ...... 8.0
  Report Time Step ......... 00:01:00
  Wet Time Step ............ 00:01:00
  Dry Time Step ............ 00:01:00
  Routing Time Step ........ 30.00 sec
  Variable Time Step ....... YES
  Maximum Trials ........... 8
  Number of Threads ........ 1
  Head Tolerance ........... 0.001500 m
  
  
  **************************        Volume         Depth
  Runoff Quantity Continuity     hectare-m            mm
  **************************     ---------       -------
  Total Precipitation ......         1.568        25.887
  Evaporation Loss .........         0.000         0.000
  Infiltration Loss ........         0.206         3.401
  Surface Runoff ...........         1.302        21.487
  Final Storage ............         0.061         1.005
  Continuity Error (%) .....        -0.021
  
  
  **************************        Volume        Volume
  Flow Routing Continuity        hectare-m      10^6 ltr
  **************************     ---------     ---------
  Dry Weather Inflow .......         0.630         6.296
  Wet Weather Inflow .......         1.301        13.014
  Groundwater Inflow .......         0.000         0.000
  RDII Inflow ..............         0.000         0.000
  External Inflow ..........         0.105         1.045
  External Outflow .........         2.121        21.208
  Flooding Loss ............         0.276         2.764
  Evaporation Loss .........         0.000         0.000
  Exfiltration Loss ........         0.000         0.000
  Initial Stored Volume ....         0.303         3.031
  Final Stored Volume ......         0.177         1.772
  Continuity Error (%) .....       -10.082
  
  
  *************************
  Highest Continuity Errors
  *************************
  Node JK-storage (-68.66%)
  Node CC-storage (-8.88%)
  Node YS02001583 (-6.80%)
  Node YS02001884 (5.22%)
  Node HS02004842 (3.17%)
  
  
  ***************************
  Time-Step Critical Elements
  ***************************
  Link WS02006252WS02006251 (65.44%)
  Link WS02006280WS02006229 (15.42%)
  Link YS02001793JiankangQianchi (7.94%)
  Link WS02004404WS02004405 (2.41%)
  Link WS02006238WS02006235 (2.17%)
  
  
  ********************************
  Highest Flow Instability Indexes
  ********************************
  Link WS02006113WS02006111 (25)
  Link WS02006252WS02006251 (10)
  Link WS02006111WS02006112 (10)
  Link WS02004404WS02004405 (8)
  Link WS02006238WS02006235 (8)
  
  
  *********************************
  Most Frequent Nonconverging Nodes
  *********************************
  Node CC-1 (6.08%)
  Node CC-2 (6.08%)
  Node JK-1 (6.08%)
  Node JK-2 (6.08%)
  Node WSC (6.08%)
  
  
  *************************
  Routing Time Step Summary
  *************************
  Minimum Time Step           :     0.00 sec
  Average Time Step           :     1.74 sec
  Maximum Time Step           :    30.00 sec
  % of Time in Steady State   :     0.00
  Average Iterations per Step :     2.64
  % of Steps Not Converging   :     6.08
  Time Step Frequencies       :
     30.000 - 13.228 sec      :     0.01 %
     13.228 -  5.833 sec      :     1.93 %
      5.833 -  2.572 sec      :    15.58 %
      2.572 -  1.134 sec      :    37.25 %
      1.134 -  0.500 sec      :    45.23 %
  
  
  ***************************
  Subcatchment Runoff Summary
  ***************************
  
  ------------------------------------------------------------------------------------------------------------------------------
                            Total      Total      Total      Total     Imperv       Perv      Total       Total     Peak  Runoff
                           Precip      Runon       Evap      Infil     Runoff     Runoff     Runoff      Runoff   Runoff   Coeff
  Subcatchment                 mm         mm         mm         mm         mm         mm         mm    10^6 ltr      LPS
  ------------------------------------------------------------------------------------------------------------------------------
  sub0                      25.89       0.00       0.00       0.86      22.82       0.95      23.77        0.02    15.96   0.918
  sub1                      25.89       0.00       0.00       1.48      21.79       1.37      23.15        0.15   100.24   0.894
  sub10                     25.89       0.00       0.00       1.04      22.53       1.03      23.56        0.26   173.20   0.910
  sub11                     25.89       0.00       0.00       1.02      22.55       1.05      23.60        0.27   196.45   0.912
  sub12                     25.89       0.00       0.00       1.66      21.34       1.71      23.05        0.20   160.48   0.890
  sub14                     25.89       0.00       0.00       1.17      22.29       1.16      23.46        0.22   154.55   0.906
  sub15                     25.89       0.00       0.00       4.60      17.15       3.16      20.31        0.35   222.18   0.785
  sub16                     25.89       0.00       0.00       4.77      16.43       3.77      20.20        0.21   152.28   0.780
  sub17                     25.89       0.00       0.00       4.66      16.67       3.63      20.30        0.17   123.45   0.784
  sub2                      25.89       0.00       0.00       6.39      15.40       3.19      18.59        0.17    94.61   0.718
  sub22                     25.89       0.00       0.00       6.92      13.97       4.21      18.18        1.15   720.40   0.702
  sub23                     25.89       0.00       0.00       5.69      15.44       3.89      19.33        0.92   607.88   0.747
  sub3                      25.89       0.00       0.00       6.76      15.36       2.82      18.18        0.41   199.82   0.702
  sub4                      25.89       0.00       0.00       1.66      21.63       1.19      22.82        0.48   226.07   0.881
  sub5                      25.89       0.00       0.00       0.90      22.77       0.91      23.67        0.27   174.97   0.915
  sub60                     25.89       0.00       0.00       1.57      21.57       1.54      23.11        0.30   221.09   0.893
  sub61                     25.89       0.00       0.00       2.28      20.35       2.12      22.47        0.41   303.14   0.868
  sub62                     25.89       0.00       0.00       1.04      22.52       1.03      23.55        0.65   423.33   0.910
  sub63                     25.89       0.00       0.00       4.24      17.40       3.27      20.68        0.47   323.50   0.799
  sub64                     25.89       0.00       0.00       2.14      20.79       1.74      22.54        0.54   332.93   0.871
  sub65                     25.89       0.00       0.00       1.85      21.26       1.51      22.78        0.63   370.19   0.880
  sub66                     25.89       0.00       0.00       5.06      17.30       2.45      19.75        0.92   451.81   0.763
  sub67                     25.89       0.00       0.00       1.00      22.56       1.07      23.64        0.44   343.70   0.913
  sub68                     25.89       0.00       0.00       1.89      21.07       1.73      22.80        0.63   431.10   0.881
  sub69                     25.89       0.00       0.00       1.64      21.89       2.25      24.14        0.89   500.36   0.932
  sub7                      25.89       0.00       0.00       1.15      22.31       1.19      23.49        0.08    58.53   0.908
  sub70                     25.89       0.00       0.00       5.24      16.92       3.56      20.48        0.59   257.20   0.791
  sub71                     25.89       0.00       0.00       1.08      22.48       1.00      23.48        0.61   364.68   0.907
  sub72                     25.89       0.00       0.00       0.96      22.67       0.85      23.52        0.32   171.48   0.909
  sub8                      25.89       0.00       0.00       1.16      22.30       1.17      23.47        0.15   105.77   0.907
  sub9                      25.89       0.00       0.00       1.16      22.30       1.17      23.46        0.11    78.78   0.906
  
  
  ******************
  Node Depth Summary
  ******************
  
  ---------------------------------------------------------------------------------
                                 Average  Maximum  Maximum  Time of Max    Reported
                                   Depth    Depth      HGL   Occurrence   Max Depth
  Node                 Type       Meters   Meters   Meters  days hr:min      Meters
  ---------------------------------------------------------------------------------
  HS02004478           JUNCTION     0.12     1.42    10.64     0  02:25        1.06
  HS02004479           JUNCTION     0.19     1.68    10.89     0  02:25        1.35
  HS02004480           JUNCTION     0.16     1.64    10.88     0  02:25        1.28
  HS02004770           JUNCTION     0.18     1.42    11.25     0  02:25        1.42
  HS02004777           JUNCTION     0.20     1.48    11.28     0  02:25        1.48
  HS02004785           JUNCTION     0.10     1.49    11.39     0  02:25        1.49
  HS02004788           JUNCTION     0.07     1.42    11.32     0  02:25        1.42
  HS02004792           JUNCTION     0.10     1.60    11.12     0  02:25        1.58
  HS02004799           JUNCTION     0.21     1.76    10.97     0  02:25        1.51
  HS02004802           JUNCTION     0.22     1.44    10.57     0  02:25        1.16
  HS02004807           JUNCTION     0.19     1.39    10.56     0  02:25        1.13
  HS02004817           JUNCTION     0.48     1.82    10.67     0  02:25        1.44
  HS02004824           JUNCTION     0.07     1.44    10.85     0  02:25        0.90
  HS02004830           JUNCTION     0.08     1.34    10.81     0  02:25        0.81
  HS02004837           JUNCTION     0.06     0.98    10.56     0  02:26        0.68
  HS02004842           JUNCTION     0.35     1.22    10.49     0  02:25        0.97
  HS02004848           JUNCTION     0.04     0.60    10.20     0  02:26        0.59
  HS02004852           JUNCTION     0.04     0.65    10.16     0  02:29        0.64
  HS02004856           JUNCTION     0.10     0.72    10.15     0  02:29        0.70
  HS02004862           JUNCTION     0.05     0.93    10.32     0  02:28        0.79
  HS02004870           JUNCTION     0.05     1.38    10.67     0  02:28        0.84
  HS02004876           JUNCTION     0.08     1.50    10.53     0  02:28        1.01
  HS02004881           JUNCTION     0.03     1.65    10.68     0  02:28        0.90
  HS02004901           JUNCTION     0.18     1.42    11.24     0  02:25        1.42
  WS02001211           JUNCTION     0.61     0.79     5.63     0  02:30        0.79
  WS02001212           JUNCTION     0.35     0.55     5.61     0  02:30        0.55
  WS02001213           JUNCTION     0.56     0.84     5.61     0  02:29        0.84
  WS02003059           JUNCTION     0.62     0.91     5.60     0  02:30        0.91
  WS02003060           JUNCTION     0.34     0.66     5.59     0  02:29        0.66
  WS02003066           JUNCTION     0.20     0.44     5.99     0  02:27        0.44
  WS02003067           JUNCTION     0.50     0.87     6.19     0  02:26        0.87
  WS02003069           JUNCTION     0.39     0.75     5.33     0  02:30        0.75
  WS02003072           JUNCTION     0.45     0.79     5.16     0  02:30        0.79
  WS02003073           JUNCTION     0.27     0.50     4.56     0  02:31        0.50
  WS02004138           JUNCTION     0.13     0.14     7.39     0  00:31        0.14
  WS02004139           JUNCTION     0.55     0.72     5.63     0  02:30        0.72
  WS02004401           JUNCTION     0.67     1.71     7.71     0  02:25        1.68
  WS02004402           JUNCTION     0.70     1.66     7.62     0  02:25        1.61
  WS02004403           JUNCTION     0.71     1.60     7.53     0  02:25        1.56
  WS02004404           JUNCTION     0.78     1.61     7.46     0  02:25        1.58
  WS02004405           JUNCTION     0.78     1.57     7.42     0  02:25        1.54
  WS02004406           JUNCTION     0.78     1.46     7.29     0  02:26        1.44
  WS02004407           JUNCTION     0.21     0.79     7.11     0  02:27        0.79
  WS02004409           JUNCTION     0.45     1.30     7.07     0  02:26        1.29
  WS02004410           JUNCTION     0.46     1.22     6.94     0  02:26        1.22
  WS02004411           JUNCTION     0.47     1.14     6.82     0  02:26        1.14
  WS02004412           JUNCTION     0.48     1.06     6.70     0  02:27        1.06
  WS02004413           JUNCTION     0.63     1.12     6.59     0  02:27        1.12
  WS02006109           JUNCTION     0.80     2.64     9.26     0  02:25        2.60
  WS02006110           JUNCTION     0.77     2.34     8.92     0  02:26        2.29
  WS02006111           JUNCTION     0.29     1.59     8.30     0  02:23        1.59
  WS02006112           JUNCTION     0.85     2.68     8.56     0  00:00        2.21
  WS02006113           JUNCTION     0.37     1.72     8.61     0  02:25        1.69
  WS02006115           JUNCTION     0.57     1.80     7.94     0  02:23        1.80
  WS02006116           JUNCTION     0.65     1.79     7.83     0  02:26        1.78
  WS02006228           JUNCTION     0.82     3.03     9.68     0  02:25        2.87
  WS02006229           JUNCTION     0.81     3.21     9.91     0  02:25        3.01
  WS02006230           JUNCTION     0.76     2.65     9.39     0  02:22        2.65
  WS02006231           JUNCTION     0.52     2.19     9.31     0  02:31        2.19
  WS02006232           JUNCTION     0.62     2.18     9.22     0  02:16        2.18
  WS02006234           JUNCTION     0.51     1.96     9.12     0  02:16        1.96
  WS02006235           JUNCTION     0.53     2.00     9.16     0  02:16        2.00
  WS02006238           JUNCTION     0.56     2.02     9.16     0  02:16        2.02
  WS02006239           JUNCTION     0.50     1.99     9.20     0  03:00        1.84
  WS02006240           JUNCTION     0.46     1.94     9.23     0  03:00        1.66
  WS02006242           JUNCTION     0.51     1.55     8.82     0  02:16        1.55
  WS02006243           JUNCTION     0.41     1.42     8.84     0  02:16        1.42
  WS02006245           JUNCTION     0.40     1.35     8.83     0  03:00        1.33
  WS02006247           JUNCTION     0.41     1.32     8.82     0  03:00        1.27
  WS02006248           JUNCTION     0.36     1.10     8.69     0  02:08        1.10
  WS02006249           JUNCTION     0.39     1.09     8.69     0  02:08        1.09
  WS02006251           JUNCTION     0.40     2.21     9.88     0  02:28        1.88
  WS02006252           JUNCTION     0.28     1.50     9.74     0  02:28        1.34
  WS02006253           JUNCTION     0.44     2.97    10.61     0  02:28        2.24
  WS02006256           JUNCTION     0.86     2.35     9.28     0  00:11        2.35
  WS02006280           JUNCTION     0.17     1.73    10.00     0  02:25        1.49
  WS02006284           JUNCTION     0.44     1.89    10.29     0  02:25        1.58
  WS02006287           JUNCTION     0.18     1.61    10.56     0  02:25        1.25
  WSF200               JUNCTION     0.19     0.50     5.73     0  02:28        0.50
  YS02001580           JUNCTION     0.02     1.05     9.59     0  02:25        0.61
  YS02001583           JUNCTION     0.05     1.14     9.64     0  02:25        0.66
  YS02001586           JUNCTION     0.10     1.13     9.30     0  02:25        0.99
  YS02001590           JUNCTION     0.18     1.40     9.26     0  02:23        1.24
  YS02001593           JUNCTION     0.11     1.46     9.32     0  02:23        1.19
  YS02001596           JUNCTION     0.16     1.70     9.12     0  02:23        1.59
  YS02001600           JUNCTION     0.20     1.87     9.00     0  02:25        1.82
  YS02001601           JUNCTION     0.39     2.06     8.90     0  02:23        2.06
  YS02001602           JUNCTION     0.32     1.87     8.77     0  02:24        1.87
  YS02001605           JUNCTION     0.29     1.78     8.68     0  02:24        1.78
  YS02001607           JUNCTION     0.30     1.68     8.53     0  02:25        1.68
  YS02001610           JUNCTION     0.34     1.68     8.48     0  02:24        1.68
  YS02001613           JUNCTION     0.30     1.70     8.54     0  02:25        1.70
  YS02001616           JUNCTION     0.24     1.61     8.52     0  02:24        1.61
  YS02001619           JUNCTION     0.21     1.61     8.54     0  02:24        1.61
  YS02001622           JUNCTION     0.20     1.62     8.52     0  02:24        1.62
  YS02001625           JUNCTION     0.46     1.78     8.38     0  02:25        1.78
  YS02001629           JUNCTION     0.30     1.85     8.40     0  02:24        1.85
  YS02001633           JUNCTION     0.38     1.93     8.39     0  02:25        1.93
  YS02001641           JUNCTION     0.37     1.59     8.02     0  02:25        1.59
  YS02001644           JUNCTION     0.37     1.34     7.77     0  02:25        1.34
  YS02001647           JUNCTION     0.16     0.85     7.46     0  02:27        0.84
  YS02001649           JUNCTION     0.18     0.97     7.36     0  02:26        0.93
  YS02001652           JUNCTION     0.08     0.76     7.36     0  02:26        0.72
  YS02001655           JUNCTION     0.05     0.49     7.34     0  02:26        0.47
  YS02001658           JUNCTION     0.04     0.26     7.40     0  02:25        0.26
  YS02001661           JUNCTION     0.10     0.31     7.72     0  02:25        0.31
  YS02001664           JUNCTION     0.04     0.22     8.14     0  02:25        0.21
  YS02001745           JUNCTION     0.03     0.20     7.71     0  02:25        0.20
  YS02001748           JUNCTION     0.04     0.23     7.30     0  02:25        0.22
  YS02001751           JUNCTION     0.04     0.31     7.19     0  02:27        0.30
  YS02001754           JUNCTION     0.06     0.63     7.23     0  02:29        0.57
  YS02001757           JUNCTION     0.19     0.94     7.20     0  02:28        0.91
  YS02001759           JUNCTION     0.12     0.85     7.21     0  02:28        0.83
  YS02001762           JUNCTION     0.12     0.81     7.21     0  02:29        0.81
  YS02001765           JUNCTION     0.11     0.78     7.23     0  02:28        0.77
  YS02001767           JUNCTION     0.11     0.75     7.24     0  02:28        0.75
  YS02001770           JUNCTION     0.13     0.77     7.26     0  02:28        0.76
  YS02001774           JUNCTION     0.19     0.84     7.26     0  02:28        0.83
  YS02001779           JUNCTION     0.04     0.58     7.27     0  02:28        0.55
  YS02001783           JUNCTION     0.16     1.01     7.16     0  02:29        1.01
  YS02001784           JUNCTION     0.19     0.93     7.00     0  02:29        0.93
  YS02001786           JUNCTION     0.16     0.76     6.79     0  02:30        0.76
  YS02001788           JUNCTION     0.11     0.57     6.55     0  02:29        0.57
  YS02001790           JUNCTION     0.14     0.67     6.31     0  02:30        0.66
  YS02001791           JUNCTION     0.09     0.40     5.87     0  02:30        0.39
  YS02001793           JUNCTION     0.06     0.23     5.07     0  02:30        0.23
  YS02001882           JUNCTION     0.20     1.22     7.93     0  02:26        1.18
  YS02001884           JUNCTION     0.29     1.31     7.92     0  02:28        1.27
  YS02001887           JUNCTION     0.36     1.37     7.91     0  02:28        1.33
  YS02001890           JUNCTION     0.39     1.39     7.89     0  02:28        1.36
  YS02001895           JUNCTION     0.17     1.14     7.89     0  02:28        1.12
  YS02001898           JUNCTION     0.18     1.15     7.89     0  02:28        1.13
  YS02001901           JUNCTION     0.29     1.27     7.88     0  02:28        1.26
  YS02001904           JUNCTION     0.27     1.24     7.87     0  02:28        1.24
  YS02001907           JUNCTION     0.58     1.58     7.87     0  02:29        1.58
  YS02001910           JUNCTION     0.38     1.39     7.89     0  02:29        1.38
  YS02001915           JUNCTION     0.20     1.19     7.91     0  02:29        1.18
  YS02001918           JUNCTION     0.08     0.85     7.92     0  02:29        0.84
  YS02001920           JUNCTION     0.16     0.92     7.92     0  02:29        0.90
  YS02001923           JUNCTION     0.05     0.66     7.92     0  02:29        0.65
  YS02001926           JUNCTION     0.10     0.48     7.92     0  02:30        0.48
  YS02001929           JUNCTION     0.04     0.21     7.90     0  02:30        0.19
  YS02006553           JUNCTION     0.58     1.57     7.85     0  02:29        1.56
  YS02006556           JUNCTION     0.56     1.51     7.82     0  02:29        1.50
  YS02006558           JUNCTION     0.60     1.54     7.81     0  02:29        1.54
  YS02006561           JUNCTION     0.09     0.59     7.25     0  02:29        0.58
  YS02163301           JUNCTION     0.32     1.88     8.39     0  02:25        1.88
  YS02163601           JUNCTION     0.42     1.88     8.28     0  02:25        1.88
  YS02164001           JUNCTION     0.36     1.72     8.18     0  02:25        1.72
  YSB1154              JUNCTION     0.32     1.96    11.02     0  02:25        1.46
  YSB1171              JUNCTION     0.46     1.95    10.85     0  02:25        1.61
  YSB1174              JUNCTION     0.27     1.82    10.93     0  02:25        1.40
  YSB6556              JUNCTION     0.22     1.80    10.97     0  02:25        1.34
  CC-1                 OUTFALL      0.00     0.00     0.00     0  00:00        0.00
  CC-2                 OUTFALL      0.00     0.00     0.00     0  00:00        0.00
  JK-1                 OUTFALL      0.00     0.00     0.00     0  00:00        0.00
  JK-2                 OUTFALL      0.00     0.00     0.00     0  00:00        0.00
  WSC                  OUTFALL      0.27     0.50     1.17     0  02:31        0.50
  CC-storage           STORAGE      0.16     0.80     6.30     0  00:00        0.80
  JK-storage           STORAGE      0.09     3.00     3.80     0  00:05        3.00
  XR-storage           STORAGE      7.84     9.26     7.26     0  08:00        9.26
  
  
  *******************
  Node Inflow Summary
  *******************
  
  -------------------------------------------------------------------------------------------------
                                  Maximum  Maximum                  Lateral       Total        Flow
                                  Lateral    Total  Time of Max      Inflow      Inflow     Balance
                                   Inflow   Inflow   Occurrence      Volume      Volume       Error
  Node                 Type           LPS      LPS  days hr:min    10^6 ltr    10^6 ltr     Percent
  -------------------------------------------------------------------------------------------------
  HS02004478           JUNCTION      0.00  2057.59     0  02:25           0        4.34      -0.018
  HS02004479           JUNCTION      0.00   356.14     0  02:25           0       0.478       0.144
  HS02004480           JUNCTION      0.00  2042.11     0  02:25           0        3.35       0.080
  HS02004770           JUNCTION    607.88   755.88     0  02:24       0.922        1.12       0.266
  HS02004777           JUNCTION      0.03   760.74     0  02:24    0.000864        1.11       0.468
  HS02004785           JUNCTION      0.15   765.65     0  02:24     0.00432        1.11       0.031
  HS02004788           JUNCTION    223.85   868.24     0  02:28       0.397        1.51       0.008
  HS02004792           JUNCTION    720.68  1563.60     0  02:26        1.16        2.66       0.026
  HS02004799           JUNCTION    154.55  1715.67     0  02:26       0.223        2.88       0.082
  HS02004802           JUNCTION      0.00   345.07     0  02:40           0        1.03       0.390
  HS02004807           JUNCTION    196.45   393.43     0  02:25       0.274        1.08       0.380
  HS02004817           JUNCTION      0.60   392.59     0  02:25      0.0173       0.883       1.908
  HS02004824           JUNCTION    226.12   612.13     0  02:25       0.477        0.97       0.044
  HS02004830           JUNCTION      0.15   623.66     0  02:25     0.00432       0.596       0.191
  HS02004837           JUNCTION    179.55   808.34     0  02:25       0.443       0.719       0.118
  HS02004842           JUNCTION      0.00   767.79     0  02:26           0       0.405       3.274
  HS02004848           JUNCTION    199.82   966.98     0  02:26       0.409       0.702       0.010
  HS02004852           JUNCTION      0.00   926.67     0  02:26           0       0.603       0.010
  HS02004856           JUNCTION     78.78   968.04     0  02:27       0.113       0.716       0.203
  HS02004862           JUNCTION     94.81  1052.34     0  02:27       0.179       0.894       0.012
  HS02004870           JUNCTION    105.77  1148.38     0  02:27        0.15        1.04      -0.012
  HS02004876           JUNCTION    100.24  1206.30     0  02:27       0.154         1.2       0.050
  HS02004881           JUNCTION     58.53  1201.48     0  02:27      0.0792        1.28       0.017
  HS02004901           JUNCTION    152.28   152.28     0  02:25       0.211       0.212       0.825
  WS02001211           JUNCTION      7.35   204.79     0  03:06       0.212        5.44       0.612
  WS02001212           JUNCTION      0.00   211.25     0  03:06           0        5.41       0.290
  WS02001213           JUNCTION      0.00   215.96     0  02:43           0        5.39       0.332
  WS02003059           JUNCTION      0.00   222.42     0  03:07           0        5.38       0.595
  WS02003060           JUNCTION     16.53  1415.04     0  02:29       0.476        11.8       0.125
  WS02003066           JUNCTION      0.00  1222.26     0  02:27           0        5.97       0.024
  WS02003067           JUNCTION      0.00  1221.42     0  02:27           0        5.97       0.072
  WS02003069           JUNCTION      0.32  1415.01     0  02:29     0.00922        11.8       0.130
  WS02003072           JUNCTION      0.00  1414.79     0  02:30           0        11.8       0.177
  WS02003073           JUNCTION      1.82  1416.68     0  02:30      0.0524        11.8       0.183
  WS02004138           JUNCTION      0.00   190.00     0  00:29           0        5.25       0.053
  WS02004139           JUNCTION      0.32   190.32     0  00:31     0.00924        5.26       0.508
  WS02004401           JUNCTION      0.00  1225.32     0  02:26           0        6.08       0.185
  WS02004402           JUNCTION      0.00  1225.27     0  02:26           0        6.07       0.182
  WS02004403           JUNCTION      0.00  1225.90     0  02:26           0        6.06       0.180
  WS02004404           JUNCTION      0.16  1226.77     0  02:26     0.00467        6.06       0.147
  WS02004405           JUNCTION      0.04  1227.28     0  02:26      0.0011        6.05       0.209
  WS02004406           JUNCTION      0.00  1228.27     0  02:26           0        6.04       0.357
  WS02004407           JUNCTION      0.00  1228.44     0  02:26           0        6.01       0.024
  WS02004409           JUNCTION      0.00  1221.31     0  02:27           0        6.01       0.050
  WS02004410           JUNCTION      0.00  1221.41     0  02:27           0           6       0.078
  WS02004411           JUNCTION      0.00  1221.37     0  02:27           0           6       0.097
  WS02004412           JUNCTION      0.00  1221.27     0  02:27           0        5.99       0.132
  WS02004413           JUNCTION      0.00  1221.35     0  02:27           0        5.99       0.227
  WS02006109           JUNCTION      1.23  1308.01     0  00:00      0.0354         5.9       0.206
  WS02006110           JUNCTION      0.00  1106.60     0  02:28           0        5.86      -0.603
  WS02006111           JUNCTION      0.00  1176.04     0  00:00           0        5.89      -0.641
  WS02006112           JUNCTION    123.45  2307.30     0  00:00       0.174         6.1      -0.010
  WS02006113           JUNCTION      0.00  1106.63     0  02:28           0        5.85      -0.776
  WS02006115           JUNCTION      0.00  2152.75     0  00:00           0        6.09       0.075
  WS02006116           JUNCTION      0.00  1225.41     0  02:26           0        6.08       0.044
  WS02006228           JUNCTION      0.00  1125.17     0  02:25           0        5.84       0.108
  WS02006229           JUNCTION      0.00  1911.81     0  02:26           0        6.52       0.149
  WS02006230           JUNCTION     10.28   817.81     0  02:26       0.296        2.89       0.201
  WS02006231           JUNCTION      0.00   453.20     0  02:28           0        2.43      -0.247
  WS02006232           JUNCTION      0.00   453.27     0  02:27           0        2.43       0.171
  WS02006234           JUNCTION      0.00   453.07     0  02:28           0        2.43      -0.103
  WS02006235           JUNCTION      0.00   415.09     0  02:25           0        2.47       0.114
  WS02006238           JUNCTION      0.00   415.55     0  02:25           0         1.9      -0.099
  WS02006239           JUNCTION      0.00   415.20     0  02:25           0         1.9      -0.194
  WS02006240           JUNCTION      0.00   414.94     0  02:25           0         1.9      -0.016
  WS02006242           JUNCTION      0.00   415.07     0  02:25           0         1.9       0.072
  WS02006243           JUNCTION      0.00   323.28     0  03:00           0        1.75      -0.121
  WS02006245           JUNCTION      0.00   323.93     0  03:00           0        1.76       0.301
  WS02006247           JUNCTION      0.00   323.94     0  03:00           0        1.76       0.034
  WS02006248           JUNCTION      0.00   340.13     0  02:23           0        1.88      -0.020
  WS02006249           JUNCTION      0.00  1195.79     0  02:28           0        2.78       0.129
  WS02006251           JUNCTION      0.08  1298.53     0  00:05     0.00222        2.79       0.036
  WS02006252           JUNCTION      0.00   200.00     0  00:05           0        1.47      -0.586
  WS02006253           JUNCTION     15.96  1140.34     0  02:30      0.0192        1.31       0.016
  WS02006256           JUNCTION      0.00   300.00     0  01:55           0        1.03       0.013
  WS02006280           JUNCTION      0.00  1910.48     0  02:26           0        4.32       0.009
  WS02006284           JUNCTION      0.10  1909.90     0  02:26     0.00275        4.32       0.006
  WS02006287           JUNCTION      0.00  1908.36     0  02:26           0        4.32       0.020
  WSF200               JUNCTION      0.00  1222.27     0  02:27           0        5.97       0.011
  YS02001580           JUNCTION      0.00   124.53     0  02:24           0     0.00445       1.316
  YS02001583           JUNCTION      0.00   205.36     0  02:25           0      0.0152      -6.368
  YS02001586           JUNCTION    257.20   259.67     0  02:25       0.592       0.603       0.252
  YS02001590           JUNCTION      0.00   259.81     0  02:25           0       0.589      -0.041
  YS02001593           JUNCTION      0.00   260.02     0  02:25           0       0.589       0.021
  YS02001596           JUNCTION      0.00   260.00     0  02:25           0       0.589      -0.018
  YS02001600           JUNCTION      0.00   260.03     0  02:25           0       0.589      -0.002
  YS02001601           JUNCTION    500.36   758.84     0  02:25       0.893        1.48       0.058
  YS02001602           JUNCTION      0.00   540.25     0  02:24           0        1.38       0.029
  YS02001605           JUNCTION      0.00   540.92     0  02:24           0        1.37       0.034
  YS02001607           JUNCTION      0.00   541.49     0  02:24           0        1.37       0.144
  YS02001610           JUNCTION      0.00   538.41     0  02:24           0        1.37       0.167
  YS02001613           JUNCTION      0.00   545.35     0  02:24           0        1.37       0.121
  YS02001616           JUNCTION      0.00   555.61     0  02:24           0        1.37       0.032
  YS02001619           JUNCTION    451.81   938.03     0  02:24       0.921        2.29       0.003
  YS02001622           JUNCTION      0.00   938.50     0  02:24           0        2.29      -0.013
  YS02001625           JUNCTION      0.00   946.06     0  02:24           0        2.29       0.396
  YS02001629           JUNCTION      0.00   946.39     0  02:24           0        2.28       0.031
  YS02001633           JUNCTION    370.39  1266.61     0  02:25       0.633        2.91       0.121
  YS02001641           JUNCTION      0.00  1268.39     0  02:25           0        2.91       0.097
  YS02001644           JUNCTION    332.97  1601.06     0  02:25       0.542        3.44       0.099
  YS02001647           JUNCTION      0.00  1600.98     0  02:25           0        3.44       0.009
  YS02001649           JUNCTION      0.00  1970.74     0  02:26           0        3.91       0.011
  YS02001652           JUNCTION      0.00   402.88     0  02:26           0       0.473      -0.177
  YS02001655           JUNCTION      0.15   335.64     0  02:26     0.00443       0.473       0.144
  YS02001658           JUNCTION      0.00   324.50     0  02:25           0       0.469      -0.013
  YS02001661           JUNCTION      0.00   323.20     0  02:25           0       0.469       0.072
  YS02001664           JUNCTION    323.50   323.50     0  02:25       0.469       0.469      -0.005
  YS02001745           JUNCTION    221.09   221.09     0  02:25       0.304       0.304      -0.001
  YS02001748           JUNCTION      0.04   221.33     0  02:25      0.0013       0.305      -0.006
  YS02001751           JUNCTION      0.01   221.98     0  02:25    0.000317       0.305       0.202
  YS02001754           JUNCTION      0.26   258.47     0  02:28     0.00749       0.312      -0.232
  YS02001757           JUNCTION      0.00  2770.37     0  02:28           0         5.3      -0.024
  YS02001759           JUNCTION    303.18   661.38     0  02:28       0.413        1.08      -0.002
  YS02001762           JUNCTION      0.00   429.24     0  02:29           0       0.664       0.021
  YS02001765           JUNCTION      0.00   406.59     0  02:28           0       0.664       0.018
  YS02001767           JUNCTION      0.54   410.46     0  02:29      0.0154       0.664       0.036
  YS02001770           JUNCTION    423.48   423.48     0  02:26        0.65        0.68       0.006
  YS02001774           JUNCTION      0.00    91.21     0  02:26           0       0.044       2.683
  YS02001779           JUNCTION      0.01    47.66     0  02:27    0.000144      0.0122       0.048
  YS02001783           JUNCTION      0.00  1046.49     0  02:29           0        2.06       0.012
  YS02001784           JUNCTION      1.06  1047.63     0  02:29      0.0305        2.09       0.026
  YS02001786           JUNCTION      0.06  1047.75     0  02:29     0.00162        2.09       0.030
  YS02001788           JUNCTION      0.07  1048.15     0  02:30     0.00204        2.09       0.015
  YS02001790           JUNCTION      0.15  1055.92     0  02:30     0.00446        2.09       0.024
  YS02001791           JUNCTION      0.00  1141.73     0  02:30           0        2.09       0.002
  YS02001793           JUNCTION      0.00  1073.02     0  02:29           0        2.09       0.004
  YS02001882           JUNCTION      0.00    32.58     0  02:24           0      0.0121       5.074
  YS02001884           JUNCTION      0.00    70.06     0  02:24           0      0.0475       5.509
  YS02001887           JUNCTION    344.15   344.15     0  02:25       0.453       0.485       0.930
  YS02001890           JUNCTION      0.00   329.23     0  02:26           0       0.445       1.158
  YS02001895           JUNCTION      0.00   329.42     0  02:26           0        0.44       0.286
  YS02001898           JUNCTION      0.00   319.97     0  02:27           0       0.439       0.113
  YS02001901           JUNCTION      0.00   314.96     0  02:27           0       0.441       0.703
  YS02001904           JUNCTION      0.00   315.84     0  02:27           0       0.445       0.655
  YS02001907           JUNCTION      0.00   722.76     0  02:31           0        1.46       1.241
  YS02001910           JUNCTION      0.00   544.20     0  02:31           0        1.02       0.700
  YS02001915           JUNCTION    364.70   542.64     0  02:31       0.614        1.03       0.161
  YS02001918           JUNCTION      0.00   244.28     0  02:32           0       0.411       0.075
  YS02001920           JUNCTION      2.87   221.34     0  02:31      0.0827       0.408       0.265
  YS02001923           JUNCTION      0.04   178.01     0  02:31     0.00109       0.325      -0.067
  YS02001926           JUNCTION      0.05   171.49     0  02:30      0.0015       0.325       0.161
  YS02001929           JUNCTION    171.48   171.48     0  02:26       0.323       0.323      -0.003
  YS02006553           JUNCTION      0.00   722.81     0  02:31           0        1.45       0.822
  YS02006556           JUNCTION      0.00   723.12     0  02:31           0        1.45       0.567
  YS02006558           JUNCTION    431.98  1047.03     0  02:29       0.653        2.08       0.163
  YS02006561           JUNCTION      0.00  1047.02     0  02:29           0        2.06       0.008
  YS02163301           JUNCTION      0.00   896.98     0  02:26           0        2.28       0.070
  YS02163601           JUNCTION      0.11  1267.14     0  02:25     0.00317        2.91       0.170
  YS02164001           JUNCTION      0.00  1267.19     0  02:25           0        2.91       0.084
  YSB1154              JUNCTION    174.97   174.97     0  02:26       0.268       0.269       0.533
  YSB1171              JUNCTION      0.00   347.61     0  02:25           0       0.478       1.333
  YSB1174              JUNCTION    160.48   160.48     0  02:25       0.201       0.202       0.626
  YSB6556              JUNCTION      0.00   176.94     0  02:25           0        0.27       0.429
  CC-1                 OUTFALL       0.00   683.00     0  02:14           0        1.71       0.000
  CC-2                 OUTFALL       0.00   683.00     0  00:20           0        5.02       0.000
  JK-1                 OUTFALL       0.00  1000.00     0  00:05           0        1.64       0.000
  JK-2                 OUTFALL       0.00  1000.00     0  02:30           0        1.07       0.000
  WSC                  OUTFALL       0.00  1417.04     0  02:31           0        11.8       0.000
  CC-storage           STORAGE       0.00  2685.67     0  02:28           0        7.53      -8.156
  JK-storage           STORAGE       0.00  1088.10     0  02:29           0        2.24     -40.708
  XR-storage           STORAGE     200.00   200.00     0  00:00        5.76        6.36       0.001
  
  
  **********************
  Node Surcharge Summary
  **********************
  
  Surcharging occurs when water rises above the top of the highest conduit.
  ---------------------------------------------------------------------
                                               Max. Height   Min. Depth
                                   Hours       Above Crown    Below Rim
  Node                 Type      Surcharged         Meters       Meters
  ---------------------------------------------------------------------
  HS02004478           JUNCTION        0.07          0.496        0.444
  HS02004479           JUNCTION        0.18          0.884        0.166
  HS02004480           JUNCTION        0.21          0.926        0.174
  HS02004770           JUNCTION        0.15          0.720        0.000
  HS02004777           JUNCTION        0.15          0.780        0.000
  HS02004785           JUNCTION        0.10          0.790        0.000
  HS02004788           JUNCTION        0.09          0.720        0.000
  HS02004792           JUNCTION        0.18          0.900        0.000
  HS02004799           JUNCTION        0.27          1.060        0.000
  HS02004802           JUNCTION        0.22          0.732        0.478
  HS02004807           JUNCTION        0.20          0.689        0.531
  HS02004817           JUNCTION        0.57          1.121        0.619
  HS02004824           JUNCTION        0.10          0.743        0.567
  HS02004830           JUNCTION        0.06          0.640        0.690
  HS02004837           JUNCTION        0.01          0.278        1.062
  HS02004842           JUNCTION        0.15          0.520        1.000
  HS02004862           JUNCTION        0.02          0.231        1.069
  HS02004870           JUNCTION        0.03          0.682        0.718
  HS02004876           JUNCTION        0.08          0.803        0.757
  HS02004881           JUNCTION        0.05          0.954        0.496
  HS02004901           JUNCTION        0.15          0.720        0.000
  WS02004401           JUNCTION        0.91          0.711        0.949
  WS02004402           JUNCTION        0.98          0.661        1.079
  WS02004403           JUNCTION        1.00          0.599        1.431
  WS02004404           JUNCTION        1.12          0.609        2.171
  WS02004405           JUNCTION        1.10          0.565        2.235
  WS02004406           JUNCTION        1.08          0.463        1.987
  WS02004409           JUNCTION        0.47          0.299        2.061
  WS02004410           JUNCTION        0.43          0.217        2.323
  WS02004411           JUNCTION        0.36          0.145        2.385
  WS02004412           JUNCTION        0.29          0.064        2.246
  WS02004413           JUNCTION        0.73          0.119        2.081
  WS02006109           JUNCTION        1.40          1.820        0.000
  WS02006110           JUNCTION        1.26          1.427        0.423
  WS02006111           JUNCTION        0.68          0.780        1.090
  WS02006112           JUNCTION        1.31          1.680        0.000
  WS02006113           JUNCTION        0.70          0.919        1.011
  WS02006115           JUNCTION        0.85          0.787        1.463
  WS02006116           JUNCTION        0.86          0.726        1.564
  WS02006228           JUNCTION        1.39          2.200        0.000
  WS02006229           JUNCTION        0.39          1.033        0.037
  WS02006230           JUNCTION        1.13          1.570        0.000
  WS02006231           JUNCTION        1.18          1.482        0.048
  WS02006232           JUNCTION        1.32          1.480        0.000
  WS02006234           JUNCTION        1.25          1.240        0.000
  WS02006235           JUNCTION        1.28          1.290        0.000
  WS02006238           JUNCTION        1.28          1.297        0.133
  WS02006239           JUNCTION        1.25          1.253        0.037
  WS02006240           JUNCTION        1.22          1.230        0.160
  WS02006242           JUNCTION        1.25          0.820        0.000
  WS02006243           JUNCTION        1.15          0.714        0.056
  WS02006245           JUNCTION        1.12          0.638        0.212
  WS02006247           JUNCTION        1.12          0.606        0.154
  WS02006248           JUNCTION        1.04          0.380        0.000
  WS02006249           JUNCTION        1.07          0.390        0.000
  WS02006251           JUNCTION        0.84          1.180        0.000
  WS02006252           JUNCTION        0.88          1.100        0.000
  WS02006253           JUNCTION        0.84          1.928        0.552
  WS02006256           JUNCTION        5.12          2.050        0.000
  WS02006280           JUNCTION        0.29          0.680        0.100
  WS02006284           JUNCTION        0.23          0.608        0.192
  WS02006287           JUNCTION        0.16          0.607        0.283
  YS02001580           JUNCTION        0.06          0.450        0.000
  YS02001583           JUNCTION        0.07          0.500        0.000
  YS02001586           JUNCTION        0.22          0.510        0.000
  YS02001590           JUNCTION        0.27          0.750        0.000
  YS02001593           JUNCTION        0.27          0.840        0.000
  YS02001596           JUNCTION        0.36          0.967        0.103
  YS02001600           JUNCTION        0.45          1.190        0.000
  YS02001601           JUNCTION        0.73          1.440        0.000
  YS02001602           JUNCTION        0.64          1.270        0.000
  YS02001605           JUNCTION        0.59          1.180        0.000
  YS02001607           JUNCTION        0.22          0.680        0.000
  YS02001610           JUNCTION        0.24          0.680        0.000
  YS02001613           JUNCTION        0.22          0.700        0.000
  YS02001616           JUNCTION        0.18          0.610        0.000
  YS02001619           JUNCTION        0.17          0.610        0.000
  YS02001622           JUNCTION        0.16          0.620        0.000
  YS02001625           JUNCTION        0.31          0.780        0.000
  YS02001629           JUNCTION        0.10          0.470        0.000
  YS02001633           JUNCTION        0.32          0.912        0.148
  YS02001641           JUNCTION        0.24          0.586        0.514
  YS02001644           JUNCTION        0.20          0.339        0.581
  YS02001783           JUNCTION        0.16          0.215        1.385
  YS02001784           JUNCTION        0.14          0.129        1.361
  YS02001882           JUNCTION        0.10          0.216        0.614
  YS02001884           JUNCTION        0.12          0.247        0.623
  YS02001887           JUNCTION        0.16          0.321        0.629
  YS02001890           JUNCTION        0.17          0.336        0.424
  YS02001895           JUNCTION        0.09          0.143        0.607
  YS02001898           JUNCTION        0.07          0.125        0.615
  YS02001901           JUNCTION        0.14          0.269        0.601
  YS02001904           JUNCTION        0.13          0.242        0.608
  YS02001907           JUNCTION        0.33          0.573        0.377
  YS02001910           JUNCTION        0.19          0.386        0.714
  YS02001915           JUNCTION        0.10          0.187        0.813
  YS02006553           JUNCTION        0.34          0.569        0.621
  YS02006556           JUNCTION        0.26          0.470        0.880
  YS02006558           JUNCTION        0.25          0.443        0.957
  YS02163301           JUNCTION        0.31          0.875        0.155
  YS02163601           JUNCTION        0.34          0.881        0.199
  YS02164001           JUNCTION        0.25          0.725        0.375
  YSB1154              JUNCTION        0.34          1.257        0.143
  YSB1171              JUNCTION        0.35          1.100        0.000
  YSB1174              JUNCTION        0.30          1.118        0.132
  YSB6556              JUNCTION        0.26          1.100        0.000
  
  
  *********************
  Node Flooding Summary
  *********************
  
  Flooding refers to all water that overflows a node, whether it ponds or not.
  --------------------------------------------------------------------------
                                                             Total   Maximum
                                 Maximum   Time of Max       Flood    Ponded
                        Hours       Rate    Occurrence      Volume     Depth
  Node                 Flooded       LPS   days hr:min    10^6 ltr    Meters
  --------------------------------------------------------------------------
  HS02004770              0.02    143.08      0  02:25       0.006     0.000
  HS02004777              0.01     26.39      0  02:25       0.000     0.000
  HS02004785              0.01     94.07      0  02:25       0.000     0.000
  HS02004788              0.01    282.37      0  02:25       0.001     0.000
  HS02004792              0.01     59.25      0  02:25       0.000     0.000
  HS02004799              0.01      6.60      0  02:25       0.000     0.000
  HS02004901              0.05    138.92      0  02:26       0.014     0.000
  WS02006109              0.01     36.23      0  02:25       0.000     0.000
  WS02006112              0.01   1153.65      0  00:00       0.035     0.000
  WS02006228              0.01      3.49      0  02:25       0.000     0.000
  WS02006230              0.24    364.73      0  02:26       0.166     0.000
  WS02006232              0.07      0.43      0  02:32       0.000     0.000
  WS02006234              0.28    128.30      0  02:26       0.081     0.000
  WS02006235              0.01      0.92      0  02:16       0.000     0.000
  WS02006242              0.37    137.31      0  02:27       0.144     0.000
  WS02006248              0.62    340.06      0  02:23       0.559     0.000
  WS02006249              0.84   1133.97      0  02:28       1.320     0.000
  WS02006251              0.01     95.17      0  02:40       0.000     0.000
  WS02006252              0.01     68.67      0  02:28       0.000     0.000
  WS02006256              0.67    293.54      0  02:40       0.342     0.000
  YS02001580              0.01    103.84      0  02:25       0.000     0.000
  YS02001583              0.01    125.91      0  02:25       0.000     0.000
  YS02001586              0.01     87.49      0  02:25       0.001     0.000
  YS02001590              0.01     17.36      0  02:23       0.000     0.000
  YS02001593              0.01     25.41      0  02:23       0.000     0.000
  YS02001600              0.01      1.36      0  02:25       0.000     0.000
  YS02001601              0.17    325.31      0  02:25       0.107     0.000
  YS02001602              0.01     23.92      0  02:25       0.000     0.000
  YS02001605              0.01      5.18      0  02:24       0.000     0.000
  YS02001607              0.01      7.45      0  02:25       0.000     0.000
  YS02001610              0.01     33.19      0  02:25       0.000     0.000
  YS02001613              0.01     11.45      0  02:25       0.000     0.000
  YS02001616              0.01     24.52      0  02:24       0.000     0.000
  YS02001619              0.01     86.42      0  02:24       0.000     0.000
  YS02001622              0.01    154.92      0  02:24       0.000     0.000
  YS02001625              0.01     56.82      0  02:25       0.000     0.000
  YS02001629              0.01    195.39      0  02:24       0.001     0.000
  YSB1171                 0.01     50.23      0  02:25       0.000     0.000
  YSB6556                 0.01     11.63      0  02:25       0.000     0.000
  
  
  **********************
  Storage Volume Summary
  **********************
  
  ------------------------------------------------------------------------------------------------
                         Average    Avg   Evap  Exfil     Maximum    Max    Time of Max    Maximum
                          Volume   Pcnt   Pcnt   Pcnt      Volume   Pcnt     Occurrence    Outflow
  Storage Unit           1000 m   Full   Loss   Loss     1000 m   Full    days hr:min        LPS
  ------------------------------------------------------------------------------------------------
  CC-storage               0.454    7.1    0.0    0.0       2.230   34.8       0  00:00    1566.00
  JK-storage               0.004    1.5    0.0    0.0       0.151   51.7       0  00:05    1802.42
  XR-storage               0.940   65.3    0.0    0.0       1.111   77.1       0  08:00     190.00
  
  
  ***********************
  Outfall Loading Summary
  ***********************
  
  -----------------------------------------------------------
                         Flow       Avg       Max       Total
                         Freq      Flow      Flow      Volume
  Outfall Node           Pcnt       LPS       LPS    10^6 ltr
  -----------------------------------------------------------
  CC-1                  31.86    288.13    683.00       1.707
  CC-2                  79.51    265.23    683.00       5.021
  JK-1                  77.64    113.37   1000.00       1.635
  JK-2                  13.22    416.10   1000.00       1.071
  WSC                   99.99    512.92   1417.04      11.773
  -----------------------------------------------------------
  System                60.44   1595.76   3783.04      21.207
  
  
  ********************
  Link Flow Summary
  ********************
  
  -----------------------------------------------------------------------------
                                 Maximum  Time of Max   Maximum    Max/    Max/
                                  |Flow|   Occurrence   |Veloc|    Full    Full
  Link                 Type          LPS  days hr:min     m/sec    Flow   Depth
  -----------------------------------------------------------------------------
  1                    CONDUIT   1417.04     0  02:31      3.64    0.49    0.50
  HS02004478WS02006287 CONDUIT   1908.36     0  02:26      2.59    0.53    1.00
  HS02004479HS02004480 CONDUIT    365.50     0  02:25      0.52    0.35    1.00
  HS02004480HS02004478 CONDUIT   2050.09     0  02:25      2.93    8.63    1.00
  HS02004770HS02004777 CONDUIT    760.71     0  02:24      1.09    1.39    1.00
  HS02004777HS02004785 CONDUIT    765.50     0  02:24      1.14    0.94    1.00
  HS02004785HS02004788 CONDUIT    665.47     0  02:28      1.37    5.02    1.00
  HS02004788HS02004792 CONDUIT    868.54     0  02:28      1.50    0.57    1.00
  HS02004792HS02004799 CONDUIT   1563.03     0  02:26      2.23    0.96    1.00
  HS02004799HS02004480 CONDUIT   1714.69     0  02:26      2.45    2.17    1.00
  HS02004802HS02004478 CONDUIT    365.57     0  02:38      0.74    0.32    1.00
  HS02004807HS02004802 CONDUIT    345.07     0  02:40      0.65    0.66    1.00
  HS02004817HS02004807 CONDUIT    391.99     0  02:25      0.56    0.23    1.00
  HS02004817HS02004824 CONDUIT    391.82     0  02:25      0.56    0.18    1.00
  HS02004824HS02004830 CONDUIT    623.51     0  02:25      0.94    0.82    1.00
  HS02004830HS02004837 CONDUIT    628.83     0  02:25      0.99    0.63    1.00
  HS02004837HS02004842 CONDUIT    767.79     0  02:26      1.10    0.46    1.00
  HS02004842HS02004848 CONDUIT    767.39     0  02:26      1.22    0.45    0.93
  HS02004848HS02004852 CONDUIT    926.67     0  02:26      1.55    1.04    0.86
  HS02004852HS02004856 CONDUIT    894.41     0  02:27      1.43    1.02    0.96
  HS02004856HS02004862 CONDUIT    959.99     0  02:27      1.67    0.96    0.97
  HS02004862HS02004870 CONDUIT   1054.77     0  02:27      1.91    1.14    1.00
  HS02004870HS02004876 CONDUIT   1113.88     0  02:27      1.87    0.74    1.00
  HS02004876HS02004881 CONDUIT   1152.10     0  02:27      2.55   12.25    1.00
  HS02004881HS02006253 CONDUIT   1131.91     0  02:30      1.86    0.22    1.00
  HS02004901HS02004770 CONDUIT    152.92     0  02:24      0.22    0.58    1.00
  WS02001211WS02001212 CONDUIT    211.25     0  03:06      0.54    0.16    0.67
  WS02001212WS02001213 CONDUIT    215.96     0  02:43      1.04    0.33    0.54
  WS02001213WS02003059 CONDUIT    222.42     0  03:07      0.47    0.37    0.87
  WS02003059WS02003060 CONDUIT    229.52     0  03:07      0.66    0.15    0.79
  WS02003060WS02003069 CONDUIT   1414.69     0  02:29      2.06    0.55    0.59
  WS02003066WSF200     CONDUIT   1222.27     0  02:27      3.24    0.21    0.37
  WS02003067WS02003066 CONDUIT   1222.26     0  02:27      1.93    0.39    0.55
  WS02003069WS02003072 CONDUIT   1414.79     0  02:30      1.86    0.68    0.64
  WS02003072WS02003073 CONDUIT   1414.86     0  02:30      2.01    3.06    0.60
  WS02004138WS02004139 CONDUIT    190.00     0  00:31      2.17    0.04    0.40
  WS02004139WS02001211 CONDUIT    197.44     0  03:06      0.55    0.25    0.59
  WS02004401WS02004402 CONDUIT   1225.27     0  02:26      2.07    1.47    1.00
  WS02004402WS02004403 CONDUIT   1225.90     0  02:26      1.84    1.76    1.00
  WS02004403WS02004404 CONDUIT   1226.60     0  02:26      1.68    0.89    1.00
  WS02004404WS02004405 CONDUIT   1227.25     0  02:26      1.86   12.02    1.00
  WS02004405WS02004406 CONDUIT   1228.27     0  02:26      1.80    2.42    1.00
  WS02004406WS02004407 CONDUIT   1228.44     0  02:26      1.71    0.55    0.90
  WS02004407WS02004409 CONDUIT   1221.31     0  02:27      1.75    0.43    0.90
  WS02004409WS02004410 CONDUIT   1221.41     0  02:27      1.56    1.58    1.00
  WS02004410WS02004411 CONDUIT   1221.37     0  02:27      1.56    1.67    1.00
  WS02004411WS02004412 CONDUIT   1221.27     0  02:27      1.55    1.73    1.00
  WS02004412WS02004413 CONDUIT   1221.35     0  02:27      1.56    0.82    1.00
  WS02004413WS02003067 CONDUIT   1221.42     0  02:27      1.92    0.52    0.76
  WS02006109WS02006110 CONDUIT   1306.78     0  00:00      3.15    2.51    1.00
  WS02006110WS02006113 CONDUIT   1106.63     0  02:28      2.20    1.01    1.00
  WS02006111WS02006112 CONDUIT   2307.30     0  00:00      9.18    1.10    1.00
  WS02006112WS02006115 CONDUIT   2152.75     0  00:00      2.85    1.27    1.00
  WS02006113WS02006111 CONDUIT   1176.04     0  00:00      2.67    1.41    1.00
  WS02006115WS02006116 CONDUIT   1225.41     0  02:26      1.81    1.57    1.00
  WS02006116WS02004401 CONDUIT   1225.32     0  02:26      2.21    1.69    1.00
  WS02006228WS02006109 CONDUIT   1127.14     0  02:25      2.24    4.92    1.00
  WS02006229WS02006228 CONDUIT   1125.17     0  02:25      2.24    3.73    1.00
  WS02006230WS02006229 CONDUIT    807.53     0  02:26      2.10   17.97    1.00
  WS02006231WS02006230 CONDUIT    453.20     0  02:28      1.29    6.87    1.00
  WS02006232WS02006231 CONDUIT    453.27     0  02:27      1.18    0.95    1.00
  WS02006234WS02006232 CONDUIT    453.07     0  02:28      1.18    0.92    1.00
  WS02006235WS02006234 CONDUIT    411.50     0  02:30      1.07    4.34    1.00
  WS02006238WS02006235 CONDUIT    415.55     0  02:25      1.23    0.93    1.00
  WS02006239WS02006238 CONDUIT    415.20     0  02:25      1.08    1.33    1.00
  WS02006240WS02006239 CONDUIT    414.94     0  02:25      1.09    1.31    1.00
  WS02006242WS02006240 CONDUIT    415.07     0  02:25      1.08    1.65    1.00
  WS02006243WS02006242 CONDUIT    320.87     0  03:00      1.14    0.69    1.00
  WS02006245WS02006243 CONDUIT    323.28     0  03:00      1.13    0.96    1.00
  WS02006247WS02006245 CONDUIT    323.93     0  03:00      1.10    2.57    1.00
  WS02006248WS02006247 CONDUIT    323.94     0  03:00      1.17    0.71    1.00
  WS02006249WS02006248 CONDUIT    326.32     0  03:00      1.11    1.79    1.00
  WS02006251WS02006249 CONDUIT   1195.79     0  02:28      3.11    3.45    1.00
  WS02006252WS02006251 CONDUIT   1298.45     0  00:05     20.66    4.77    1.00
  WS02006253WS02006251 CONDUIT   1131.51     0  02:30      2.94    3.39    1.00
  WS02006256WS02006235 CONDUIT    173.06     0  03:00      2.45    1.83    1.00
  WS02006280WS02006229 CONDUIT   1911.81     0  02:26      3.79    0.41    1.00
  WS02006284WS02006280 CONDUIT   1910.48     0  02:26      2.96    0.80    1.00
  WS02006287WS02006284 CONDUIT   1909.80     0  02:26      2.72    0.89    1.00
  WSF200WS02003060     CONDUIT   1221.66     0  02:27      2.29    0.27    0.48
  YS02001580YS02001583 CONDUIT    124.53     0  02:24      0.78    0.48    1.00
  YS02001583YS02001586 CONDUIT    174.97     0  02:24      0.77    0.26    1.00
  YS02001586YS02001590 CONDUIT    259.81     0  02:25      1.26    0.46    1.00
  YS02001590YS02001593 CONDUIT    260.02     0  02:25      1.02    1.63    1.00
  YS02001593YS02001596 CONDUIT    260.00     0  02:25      1.67    0.41    1.00
  YS02001596YS02001600 CONDUIT    260.03     0  02:25      1.17    0.51    1.00
  YS02001600YS02001601 CONDUIT    260.13     0  02:25      0.92    0.45    1.00
  YS02001601YS02001602 CONDUIT    540.25     0  02:24      1.91    1.95    1.00
  YS02001602YS02001605 CONDUIT    540.92     0  02:24      1.91   11.45    1.00
  YS02001605YS02001607 CONDUIT    541.49     0  02:24      1.92    2.97    1.00
  YS02001607YS02001610 CONDUIT    538.41     0  02:24      0.69    0.51    1.00
  YS02001610YS02001613 CONDUIT    545.35     0  02:24      0.69    0.63    1.00
  YS02001613YS02001616 CONDUIT    555.61     0  02:24      0.71    0.48    1.00
  YS02001616YS02001619 CONDUIT    521.55     0  02:24      0.70    0.91    1.00
  YS02001619YS02001622 CONDUIT    938.50     0  02:24      1.22    1.38    1.00
  YS02001622YS02001625 CONDUIT    946.06     0  02:24      1.20    0.50    1.00
  YS02001625YS02001629 CONDUIT    946.39     0  02:24      1.21    0.45    1.00
  YS02001629YS02163301 CONDUIT    896.98     0  02:26      1.14    1.10    1.00
  YS02001633YS02163601 CONDUIT   1267.03     0  02:25      1.61    1.33    1.00
  YS02001641YS02001644 CONDUIT   1268.51     0  02:25      1.62    4.10    1.00
  YS02001644YS02001647 CONDUIT   1600.98     0  02:25      2.17    0.94    0.92
  YS02001647YS02001649 CONDUIT   1627.95     0  02:27      2.31    0.86    0.89
  YS02001649YS02001757 CONDUIT   1940.93     0  02:26      2.55    1.18    0.94
  YS02001652YS02001649 CONDUIT    406.60     0  02:26      0.68    0.20    0.86
  YS02001655YS02001652 CONDUIT    402.88     0  02:26      1.30    0.20    0.60
  YS02001658YS02001655 CONDUIT    335.49     0  02:26      1.95    0.14    0.37
  YS02001661YS02001658 CONDUIT    324.50     0  02:25      2.15    0.13    0.25
  YS02001664YS02001661 CONDUIT    323.20     0  02:25      1.96    0.10    0.26
  YS02001745YS02001748 CONDUIT    221.28     0  02:25      2.02    0.09    0.20
  YS02001748YS02001751 CONDUIT    221.97     0  02:25      1.70    0.11    0.26
  YS02001751YS02001754 CONDUIT    258.21     0  02:28      1.43    0.12    0.42
  YS02001754YS02001757 CONDUIT    318.80     0  02:28      0.56    0.13    0.77
  YS02001757CaochengTiaoxuchi CONDUIT   2685.67     0  02:28      6.48    1.16    0.58
  YS02001759YS02001757 CONDUIT    660.19     0  02:29      0.92    0.47    0.89
  YS02001762YS02001759 CONDUIT    435.97     0  02:29      0.69    0.50    0.83
  YS02001765YS02001762 CONDUIT    429.24     0  02:29      0.67    0.40    0.79
  YS02001767YS02001765 CONDUIT    406.59     0  02:28      0.70    0.51    0.76
  YS02001770YS02001767 CONDUIT    409.92     0  02:29      0.73    1.62    0.76
  YS02001774YS02001770 CONDUIT     91.21     0  02:26      0.15    0.06    0.78
  YS02001779YS02001774 CONDUIT     57.57     0  02:30      0.10    0.03    0.71
  YS02001783YS02001784 CONDUIT   1046.57     0  02:29      2.08    1.44    1.00
  YS02001784YS02001785 CONDUIT   1047.69     0  02:29      2.10    2.44    0.98
  YS02001786YS02001788 CONDUIT   1048.08     0  02:30      2.36    2.02    0.83
  YS02001788YS02001790 CONDUIT   1055.77     0  02:30      2.59    0.78    0.77
  YS02001790YS02001791 CONDUIT   1141.73     0  02:30      3.29    1.24    0.65
  YS02001791YS02001793 CONDUIT   1073.02     0  02:29      6.08    0.46    0.39
  YS02001793JiankangQianchi CONDUIT   1088.10     0  02:29     21.64    0.09    0.50
  YS02001882YS02001884 CONDUIT     32.58     0  02:24      0.05    0.04    1.00
  YS02001884YS02001887 CONDUIT     70.06     0  02:24      0.09    0.09    1.00
  YS02001887YS02001890 CONDUIT    329.23     0  02:26      0.42    0.56    1.00
  YS02001890YS02001895 CONDUIT    329.42     0  02:26      0.42    0.15    1.00
  YS02001895YS02001898 CONDUIT    319.97     0  02:27      0.41    0.56    1.00
  YS02001898YS02001901 CONDUIT    314.96     0  02:27      0.40    0.20    1.00
  YS02001901YS02001904 CONDUIT    315.84     0  02:27      0.40    0.49    1.00
  YS02001904YS02001907 CONDUIT    316.78     0  02:27      0.40    0.11    1.00
  YS02001907YS02006553 CONDUIT    722.81     0  02:31      0.80    0.85    1.00
  YS02001910YS02001907 CONDUIT    544.29     0  02:31      0.69    0.31    1.00
  YS02001915YS02001910 CONDUIT    544.20     0  02:31      0.69    0.27    1.00
  YS02001918YS02001915 CONDUIT    279.24     0  02:32      0.46    0.15    0.93
  YS02001920YS02001918 CONDUIT    244.28     0  02:32      0.64    0.24    0.88
  YS02001923YS02001920 CONDUIT    218.47     0  02:31      0.71    0.10    0.78
  YS02001926YS02001923 CONDUIT    177.98     0  02:31      0.94    0.25    0.46
  YS02001929YS02001926 CONDUIT    171.44     0  02:30      1.04    0.08    0.33
  YS02006553YS02006556 CONDUIT    723.12     0  02:31      0.92    0.62    1.00
  YS02006556YS02006558 CONDUIT    723.81     0  02:31      0.92    0.57    1.00
  YS02006558YS02006561 CONDUIT   1047.02     0  02:29      3.72    2.31    0.99
  YS02006561YS02001783 CONDUIT   1046.49     0  02:29      2.27    0.54    0.87
  YS02163301YS02001633 CONDUIT    897.07     0  02:26      1.14    0.84    1.00
  YS02163601YS02164001 CONDUIT   1267.19     0  02:25      1.61    1.12    1.00
  YS02164001YS02001641 CONDUIT   1268.39     0  02:25      1.61    1.73    1.00
  YSB1154YSB6556       CONDUIT    176.94     0  02:25      0.46    0.32    1.00
  YSB1171HS02004479    CONDUIT    356.14     0  02:25      0.71    0.24    1.00
  YSB1174YSB1171       CONDUIT    162.71     0  02:25      0.42    0.25    1.00
  YSB6556YSB1171       CONDUIT    186.14     0  02:25      0.48    0.19    1.00
  CC-R1                PUMP       683.00     0  02:14              1.00
  CC-R2                PUMP       683.00     0  00:20              1.00
  CC-S1                PUMP       200.00     0  00:05              1.00
  CC-S2                PUMP       200.00     0  01:58              1.00
  JK-R1                PUMP      1000.00     0  00:05              1.00
  JK-R2                PUMP      1000.00     0  02:30              1.00
  JK-S                 PUMP       300.00     0  01:55              1.00
  XR-1                 PUMP        95.00     0  00:10              1.00
  XR-2                 PUMP        95.00     0  00:29              1.00
  XR-3                 PUMP         0.00     0  00:00              0.00
  XR-4                 PUMP         0.00     0  00:00              0.00
  
  
  ***************************
  Flow Classification Summary
  ***************************
  
  -------------------------------------------------------------------------------------
                      Adjusted    ---------- Fraction of Time in Flow Class ---------- 
                       /Actual         Up    Down  Sub   Sup   Up    Down  Norm  Inlet 
  Conduit               Length    Dry  Dry   Dry   Crit  Crit  Crit  Crit  Ltd   Ctrl  
  -------------------------------------------------------------------------------------
  1                       1.00   0.00  0.00  0.00  0.00  1.00  0.00  0.00  0.34  0.00
  HS02004478WS02006287    1.00   0.18  0.00  0.00  0.67  0.15  0.00  0.00  0.65  0.00
  HS02004479HS02004480    1.00   0.04  0.00  0.00  0.96  0.00  0.00  0.00  0.13  0.00
  HS02004480HS02004478    1.00   0.14  0.00  0.00  0.60  0.00  0.00  0.27  0.00  0.00
  HS02004770HS02004777    1.00   0.00  0.13  0.00  0.87  0.00  0.00  0.00  0.04  0.00
  HS02004777HS02004785    1.00   0.00  0.00  0.00  1.00  0.00  0.00  0.00  0.16  0.00
  HS02004785HS02004788    1.00   0.00  0.00  0.00  1.00  0.00  0.00  0.00  0.00  0.00
  HS02004788HS02004792    1.00   0.00  0.00  0.00  0.99  0.01  0.00  0.00  0.96  0.00
  HS02004792HS02004799    1.00   0.00  0.00  0.00  0.99  0.01  0.00  0.00  0.93  0.00
  HS02004799HS02004480    1.00   0.00  0.03  0.00  0.82  0.00  0.14  0.00  0.00  0.00
  HS02004802HS02004478    1.00   0.13  0.01  0.00  0.86  0.00  0.00  0.00  0.03  0.00
  HS02004807HS02004802    1.00   0.13  0.00  0.00  0.85  0.00  0.00  0.02  0.00  0.00
  HS02004817HS02004807    1.00   0.00  0.13  0.00  0.87  0.00  0.00  0.00  0.01  0.00
  HS02004817HS02004824    1.00   0.00  0.00  0.00  1.00  0.00  0.00  0.00  0.90  0.00
  HS02004824HS02004830    1.00   0.00  0.00  0.00  1.00  0.00  0.00  0.00  0.01  0.00
  HS02004830HS02004837    1.00   0.00  0.00  0.00  1.00  0.00  0.00  0.00  0.95  0.00
  HS02004837HS02004842    1.00   0.00  0.00  0.00  0.99  0.01  0.00  0.00  0.11  0.00
  HS02004842HS02004848    1.00   0.00  0.13  0.00  0.87  0.00  0.00  0.00  0.62  0.00
  HS02004848HS02004852    1.00   0.13  0.00  0.00  0.87  0.00  0.00  0.00  0.70  0.00
  HS02004852HS02004856    1.00   0.13  0.02  0.00  0.85  0.00  0.00  0.00  0.75  0.00
  HS02004856HS02004862    1.00   0.00  0.21  0.00  0.79  0.00  0.00  0.00  0.76  0.00
  HS02004862HS02004870    1.00   0.00  0.00  0.00  1.00  0.00  0.00  0.00  0.06  0.00
  HS02004870HS02004876    1.00   0.00  0.00  0.00  1.00  0.00  0.00  0.00  0.92  0.00
  HS02004876HS02004881    1.00   0.01  0.00  0.00  0.88  0.12  0.00  0.00  0.00  0.00
  HS02004881HS02006253    1.00   0.02  0.03  0.00  0.19  0.01  0.00  0.75  0.18  0.00
  HS02004901HS02004770    1.00   0.13  0.00  0.00  0.87  0.00  0.00  0.00  0.01  0.00
  WS02001211WS02001212    1.00   0.00  0.02  0.00  0.98  0.00  0.00  0.00  0.00  0.00
  WS02001212WS02001213    1.00   0.02  0.00  0.00  0.23  0.00  0.75  0.00  0.00  0.00
  WS02001213WS02003059    1.00   0.00  0.01  0.00  0.99  0.00  0.00  0.00  0.00  0.00
  WS02003059WS02003060    1.00   0.00  0.00  0.00  1.00  0.00  0.00  0.00  0.03  0.00
  WS02003060WS02003069    1.00   0.00  0.00  0.00  0.97  0.03  0.00  0.00  0.47  0.00
  WS02003066WSF200        1.00   0.06  0.00  0.00  0.00  0.94  0.00  0.00  0.77  0.00
  WS02003067WS02003066    1.00   0.05  0.01  0.00  0.94  0.00  0.00  0.00  0.00  0.00
  WS02003069WS02003072    1.00   0.00  0.00  0.00  0.99  0.01  0.00  0.00  0.72  0.00
  WS02003072WS02003073    1.00   0.00  0.00  0.00  0.00  0.00  0.00  1.00  0.00  0.00
  WS02004138WS02004139    1.00   0.02  0.00  0.00  0.97  0.01  0.00  0.00  0.98  0.00
  WS02004139WS02001211    1.00   0.00  0.01  0.00  0.99  0.00  0.00  0.00  0.00  0.00
  WS02004401WS02004402    1.00   0.00  0.00  0.00  1.00  0.00  0.00  0.00  0.00  0.00
  WS02004402WS02004403    1.00   0.00  0.00  0.00  1.00  0.00  0.00  0.00  0.00  0.00
  WS02004403WS02004404    1.00   0.00  0.00  0.00  1.00  0.00  0.00  0.00  0.00  0.00
  WS02004404WS02004405    1.00   0.00  0.00  0.00  1.00  0.00  0.00  0.00  0.00  0.00
  WS02004405WS02004406    1.00   0.00  0.00  0.00  1.00  0.00  0.00  0.00  0.00  0.00
  WS02004406WS02004407    1.00   0.00  0.01  0.00  0.99  0.00  0.00  0.00  0.01  0.00
  WS02004407WS02004409    1.00   0.01  0.00  0.00  0.98  0.01  0.00  0.00  0.93  0.00
  WS02004409WS02004410    1.00   0.01  0.00  0.00  0.99  0.00  0.00  0.00  0.00  0.00
  WS02004410WS02004411    1.00   0.01  0.00  0.00  0.99  0.00  0.00  0.00  0.01  0.00
  WS02004411WS02004412    1.00   0.01  0.00  0.00  0.99  0.00  0.00  0.00  0.00  0.00
  WS02004412WS02004413    1.00   0.01  0.00  0.00  0.99  0.00  0.00  0.00  0.02  0.00
  WS02004413WS02003067    1.00   0.01  0.04  0.00  0.00  0.00  0.95  0.00  0.00  0.00
  WS02006109WS02006110    1.00   0.00  0.00  0.00  1.00  0.00  0.00  0.00  0.00  0.00
  WS02006110WS02006113    1.00   0.00  0.00  0.00  1.00  0.00  0.00  0.00  0.00  0.00
  WS02006111WS02006112    1.00   0.00  0.00  0.00  1.00  0.00  0.00  0.00  0.86  0.00
  WS02006112WS02006115    1.00   0.00  0.00  0.00  1.00  0.00  0.00  0.00  0.00  0.00
  WS02006113WS02006111    1.00   0.00  0.00  0.00  0.11  0.89  0.00  0.00  0.06  0.00
  WS02006115WS02006116    1.00   0.00  0.00  0.00  1.00  0.00  0.00  0.00  0.00  0.00
  WS02006116WS02004401    1.00   0.00  0.00  0.00  1.00  0.00  0.00  0.00  0.00  0.00
  WS02006228WS02006109    1.00   0.00  0.00  0.00  1.00  0.00  0.00  0.00  0.00  0.00
  WS02006229WS02006228    1.00   0.00  0.00  0.00  1.00  0.00  0.00  0.00  0.00  0.00
  WS02006230WS02006229    1.00   0.00  0.00  0.00  1.00  0.00  0.00  0.00  0.00  0.00
  WS02006231WS02006230    1.00   0.00  0.00  0.00  0.23  0.00  0.76  0.00  0.00  0.00
  WS02006232WS02006231    1.00   0.00  0.00  0.00  0.99  0.00  0.00  0.00  0.01  0.00
  WS02006234WS02006232    1.00   0.00  0.01  0.00  0.99  0.00  0.00  0.00  0.25  0.00
  WS02006235WS02006234    1.00   0.02  0.00  0.00  0.64  0.00  0.34  0.00  0.00  0.00
  WS02006238WS02006235    1.00   0.02  0.00  0.00  0.98  0.00  0.00  0.00  0.00  0.00
  WS02006239WS02006238    1.00   0.02  0.00  0.00  0.98  0.00  0.00  0.00  0.31  0.00
  WS02006240WS02006239    1.00   0.02  0.00  0.00  0.55  0.00  0.00  0.43  0.01  0.00
  WS02006242WS02006240    1.00   0.01  0.00  0.00  0.98  0.00  0.00  0.00  0.00  0.00
  WS02006243WS02006242    1.00   0.01  0.00  0.00  0.98  0.00  0.00  0.01  0.69  0.00
  WS02006245WS02006243    1.00   0.01  0.00  0.00  0.87  0.00  0.00  0.12  0.00  0.00
  WS02006247WS02006245    1.00   0.01  0.00  0.00  0.98  0.00  0.00  0.01  0.00  0.00
  WS02006248WS02006247    1.00   0.01  0.00  0.00  0.99  0.00  0.00  0.00  0.61  0.00
  WS02006249WS02006248    1.00   0.00  0.01  0.00  0.35  0.00  0.64  0.00  0.00  0.00
  WS02006251WS02006249    1.00   0.00  0.00  0.00  1.00  0.00  0.00  0.00  0.63  0.00
  WS02006252WS02006251    1.00   0.01  0.21  0.00  0.11  0.00  0.67  0.00  0.00  0.00
  WS02006253WS02006251    1.00   0.01  0.00  0.00  0.98  0.00  0.01  0.00  0.00  0.00
  WS02006256WS02006235    1.00   0.02  0.00  0.00  0.98  0.00  0.00  0.00  0.00  0.00
  WS02006280WS02006229    1.00   0.14  0.00  0.00  0.08  0.03  0.00  0.75  0.00  0.00
  WS02006284WS02006280    1.00   0.14  0.00  0.00  0.04  0.01  0.00  0.81  0.00  0.00
  WS02006287WS02006284    1.00   0.10  0.07  0.00  0.56  0.26  0.00  0.00  0.71  0.00
  WSF200WS02003060        1.00   0.00  0.06  0.00  0.76  0.18  0.00  0.00  0.72  0.00
  YS02001580YS02001583    1.00   0.30  0.57  0.00  0.13  0.00  0.00  0.00  0.67  0.00
  YS02001583YS02001586    1.00   0.45  0.38  0.00  0.18  0.00  0.00  0.00  0.67  0.00
  YS02001586YS02001590    1.00   0.13  0.00  0.00  0.35  0.05  0.00  0.47  0.36  0.00
  YS02001590YS02001593    1.00   0.13  0.01  0.00  0.05  0.00  0.81  0.00  0.00  0.00
  YS02001593YS02001596    1.00   0.14  0.00  0.00  0.06  0.01  0.00  0.79  0.01  0.00
  YS02001596YS02001600    1.00   0.14  0.00  0.00  0.11  0.01  0.00  0.73  0.05  0.00
  YS02001600YS02001601    1.00   0.13  0.01  0.00  0.85  0.00  0.00  0.00  0.67  0.00
  YS02001601YS02001602    1.00   0.13  0.02  0.00  0.86  0.00  0.00  0.00  0.00  0.00
  YS02001602YS02001605    1.00   0.14  0.00  0.00  0.85  0.00  0.00  0.00  0.00  0.00
  YS02001605YS02001607    1.00   0.15  0.00  0.00  0.85  0.00  0.00  0.00  0.00  0.00
  YS02001607YS02001610    1.00   0.14  0.01  0.00  0.85  0.00  0.00  0.00  0.03  0.00
  YS02001610YS02001613    1.00   0.13  0.00  0.00  0.87  0.00  0.00  0.00  0.02  0.00
  YS02001613YS02001616    1.00   0.13  0.00  0.00  0.87  0.00  0.00  0.00  0.01  0.00
  YS02001616YS02001619    1.00   0.13  0.00  0.00  0.87  0.00  0.00  0.00  0.00  0.00
  YS02001619YS02001622    1.00   0.13  0.00  0.00  0.87  0.00  0.00  0.00  0.30  0.00
  YS02001622YS02001625    1.00   0.13  0.00  0.00  0.87  0.00  0.00  0.00  0.08  0.00
  YS02001625YS02001629    1.00   0.13  0.08  0.00  0.08  0.00  0.71  0.00  0.00  0.00
  YS02001629YS02163301    1.00   0.18  0.02  0.00  0.80  0.00  0.00  0.00  0.00  0.00
  YS02001633YS02163601    1.00   0.00  0.01  0.00  0.99  0.00  0.00  0.00  0.16  0.00
  YS02001641YS02001644    1.00   0.00  0.01  0.00  0.99  0.00  0.00  0.00  0.00  0.00
  YS02001644YS02001647    1.00   0.00  0.22  0.00  0.78  0.00  0.00  0.00  0.00  0.00
  YS02001647YS02001649    1.00   0.00  0.22  0.00  0.47  0.31  0.00  0.00  0.59  0.00
  YS02001649YS02001757    1.00   0.00  0.00  0.00  0.88  0.12  0.00  0.00  0.86  0.00
  YS02001652YS02001649    1.00   0.00  0.00  0.00  0.96  0.04  0.00  0.00  0.83  0.00
  YS02001655YS02001652    1.00   0.00  0.00  0.00  0.09  0.01  0.00  0.89  0.07  0.00
  YS02001658YS02001655    1.00   0.00  0.15  0.00  0.57  0.28  0.00  0.00  0.80  0.00
  YS02001661YS02001658    1.00   0.15  0.00  0.00  0.42  0.43  0.00  0.00  0.74  0.00
  YS02001664YS02001661    1.00   0.13  0.00  0.00  0.80  0.08  0.00  0.00  0.87  0.00
  YS02001745YS02001748    1.00   0.00  0.00  0.00  0.00  0.00  0.00  1.00  0.00  0.00
  YS02001748YS02001751    1.00   0.00  0.00  0.00  0.78  0.22  0.00  0.00  0.86  0.00
  YS02001751YS02001754    1.00   0.00  0.00  0.00  0.05  0.01  0.00  0.94  0.03  0.00
  YS02001754YS02001757    1.00   0.00  0.00  0.00  1.00  0.00  0.00  0.00  0.93  0.00
  YS02001757CaochengTiaoxuchi    1.00   0.00  0.00  0.00  0.16  0.84  0.00  0.00  0.25  0.00
  YS02001759YS02001757    1.00   0.00  0.00  0.00  1.00  0.00  0.00  0.00  0.73  0.00
  YS02001762YS02001759    1.00   0.00  0.00  0.00  1.00  0.00  0.00  0.00  0.12  0.00
  YS02001765YS02001762    1.00   0.00  0.00  0.00  1.00  0.00  0.00  0.00  0.82  0.00
  YS02001767YS02001765    1.00   0.00  0.00  0.00  1.00  0.00  0.00  0.00  0.00  0.00
  YS02001770YS02001767    1.00   0.00  0.00  0.00  1.00  0.00  0.00  0.00  0.00  0.00
  YS02001774YS02001770    1.00   0.00  0.14  0.00  0.68  0.00  0.18  0.00  0.06  0.00
  YS02001779YS02001774    1.00   0.00  0.00  0.00  1.00  0.00  0.00  0.00  0.87  0.00
  YS02001783YS02001784    1.00   0.00  0.23  0.00  0.77  0.00  0.00  0.00  0.57  0.00
  YS02001784YS02001785    1.00   0.00  0.00  0.00  1.00  0.00  0.00  0.00  0.21  0.00
  YS02001786YS02001788    1.00   0.00  0.00  0.00  0.81  0.19  0.00  0.00  0.00  0.00
  YS02001788YS02001790    1.00   0.00  0.00  0.00  0.23  0.77  0.00  0.00  0.88  0.00
  YS02001790YS02001791    1.00   0.00  0.00  0.00  0.01  0.99  0.00  0.00  0.13  0.00
  YS02001791YS02001793    1.00   0.00  0.00  0.00  0.00  1.00  0.00  0.00  0.00  0.00
  YS02001793JiankangQianchi    1.00   0.00  0.00  0.00  0.31  0.69  0.00  0.00  0.36  0.00
  YS02001882YS02001884    1.00   0.17  0.02  0.00  0.81  0.00  0.00  0.00  0.00  0.00
  YS02001884YS02001887    1.00   0.06  0.05  0.00  0.89  0.00  0.00  0.00  0.00  0.00
  YS02001887YS02001890    1.00   0.00  0.00  0.00  0.97  0.00  0.03  0.00  0.00  0.00
  YS02001890YS02001895    1.00   0.00  0.20  0.00  0.80  0.00  0.00  0.00  0.00  0.00
  YS02001895YS02001898    1.00   0.20  0.01  0.00  0.77  0.00  0.02  0.00  0.00  0.00
  YS02001898YS02001901    1.00   0.20  0.02  0.00  0.79  0.00  0.00  0.00  0.01  0.00
  YS02001901YS02001904    1.00   0.19  0.00  0.00  0.81  0.00  0.00  0.00  0.00  0.00
  YS02001904YS02001907    1.00   0.00  0.19  0.00  0.81  0.00  0.00  0.00  0.00  0.00
  YS02001907YS02006553    1.00   0.00  0.02  0.00  0.98  0.00  0.00  0.00  0.00  0.00
  YS02001910YS02001907    1.00   0.00  0.00  0.00  0.97  0.00  0.00  0.03  0.13  0.00
  YS02001915YS02001910    1.00   0.00  0.00  0.00  0.97  0.03  0.00  0.00  0.21  0.00
  YS02001918YS02001915    1.00   0.00  0.00  0.00  0.98  0.02  0.00  0.00  0.81  0.00
  YS02001920YS02001918    1.00   0.00  0.00  0.00  1.00  0.00  0.00  0.00  0.01  0.00
  YS02001923YS02001920    1.00   0.00  0.00  0.00  1.00  0.00  0.00  0.00  0.97  0.00
  YS02001926YS02001923    1.00   0.00  0.07  0.00  0.01  0.00  0.91  0.00  0.00  0.00
  YS02001929YS02001926    1.00   0.00  0.13  0.00  0.87  0.00  0.00  0.00  0.87  0.00
  YS02006553YS02006556    1.00   0.01  0.00  0.00  0.99  0.00  0.00  0.00  0.03  0.00
  YS02006556YS02006558    1.00   0.00  0.00  0.00  1.00  0.00  0.00  0.00  0.00  0.00
  YS02006558YS02006561    1.00   0.22  0.00  0.00  0.00  0.77  0.00  0.00  0.18  0.00
  YS02006561YS02001783    1.00   0.22  0.00  0.00  0.04  0.74  0.00  0.00  0.71  0.00
  YS02163301YS02001633    1.00   0.00  0.18  0.00  0.82  0.00  0.00  0.00  0.00  0.00
  YS02163601YS02164001    1.00   0.00  0.08  0.00  0.92  0.00  0.00  0.00  0.00  0.00
  YS02164001YS02001641    1.00   0.01  0.07  0.00  0.92  0.00  0.00  0.00  0.06  0.00
  YSB1154YSB6556          1.00   0.12  0.00  0.00  0.88  0.00  0.00  0.00  0.02  0.00
  YSB1171HS02004479       1.00   0.04  0.00  0.00  0.95  0.00  0.00  0.01  0.11  0.00
  YSB1174YSB1171          1.00   0.05  0.04  0.00  0.91  0.00  0.00  0.00  0.00  0.00
  YSB6556YSB1171          1.00   0.04  0.08  0.00  0.88  0.00  0.00  0.00  0.00  0.00
  
  
  *************************
  Conduit Surcharge Summary
  *************************
  
  ----------------------------------------------------------------------------
                                                           Hours        Hours 
                         --------- Hours Full --------   Above Full   Capacity
  Conduit                Both Ends  Upstream  Dnstream   Normal Flow   Limited
  ----------------------------------------------------------------------------
  HS02004478WS02006287        0.07      0.07      0.21      0.01         0.01
  HS02004479HS02004480        0.22      0.22      0.23      0.01         0.01
  HS02004480HS02004478        0.17      0.21      0.17      1.01         0.17
  HS02004770HS02004777        0.14      0.15      0.15      0.12         0.07
  HS02004777HS02004785        0.10      0.10      0.15      0.01         0.01
  HS02004785HS02004788        0.09      0.10      0.09      0.71         0.09
  HS02004788HS02004792        0.09      0.09      0.18      0.01         0.01
  HS02004792HS02004799        0.18      0.18      0.27      0.01         0.01
  HS02004799HS02004480        0.21      0.21      0.27      0.31         0.01
  HS02004802HS02004478        0.18      0.18      0.23      0.01         0.01
  HS02004807HS02004802        0.21      0.21      0.22      0.01         0.01
  HS02004817HS02004807        0.20      0.20      0.57      0.01         0.01
  HS02004817HS02004824        0.10      0.10      0.57      0.01         0.01
  HS02004824HS02004830        0.06      0.06      0.10      0.01         0.01
  HS02004830HS02004837        0.01      0.01      0.06      0.01         0.01
  HS02004837HS02004842        0.01      0.01      0.15      0.01         0.01
  HS02004842HS02004848        0.01      0.01      0.15      0.01         0.01
  HS02004848HS02004852        0.01      0.01      0.01      0.01         0.01
  HS02004852HS02004856        0.01      0.01      0.01      0.01         0.01
  HS02004856HS02004862        0.01      0.01      0.02      0.01         0.01
  HS02004862HS02004870        0.02      0.02      0.03      0.01         0.01
  HS02004870HS02004876        0.03      0.03      0.08      0.01         0.01
  HS02004876HS02004881        0.05      0.08      0.05      0.74         0.05
  HS02004881HS02006253        0.05      0.05      0.84      0.01         0.01
  HS02004901HS02004770        0.15      0.15      0.15      0.01         0.01
  WS02003072WS02003073        0.01      0.01      0.01      1.81         0.01
  WS02004401WS02004402        0.91      0.91      0.98      0.82         0.83
  WS02004402WS02004403        0.98      0.98      1.00      0.91         0.91
  WS02004403WS02004404        1.00      1.00      1.12      0.01         0.01
  WS02004404WS02004405        1.10      1.12      1.10      2.82         1.10
  WS02004405WS02004406        1.08      1.10      1.08      1.28         1.08
  WS02004406WS02004407        0.01      0.01      1.08      0.01         0.01
  WS02004407WS02004409        0.01      0.01      0.47      0.01         0.01
  WS02004409WS02004410        0.43      0.47      0.43      0.85         0.43
  WS02004410WS02004411        0.36      0.43      0.36      0.89         0.36
  WS02004411WS02004412        0.29      0.36      0.29      0.91         0.29
  WS02004412WS02004413        0.29      0.29      0.73      0.01         0.01
  WS02004413WS02003067        0.01      0.01      0.73      0.01         0.01
  WS02006109WS02006110        1.25      1.26      1.42      1.26         0.01
  WS02006110WS02006113        0.70      0.70      1.42      0.17         0.01
  WS02006111WS02006112        0.67      0.68      1.72      0.01         0.01
  WS02006112WS02006115        0.85      0.85      1.29      0.01         0.01
  WS02006113WS02006111        0.69      0.70      0.69      0.81         0.69
  WS02006115WS02006116        0.86      0.86      0.86      0.85         0.84
  WS02006116WS02004401        0.91      0.91      0.91      0.89         0.88
  WS02006228WS02006109        1.40      1.42      1.40      1.82         1.40
  WS02006229WS02006228        1.39      1.40      1.39      1.68         1.39
  WS02006230WS02006229        1.44      1.61      1.44      3.30         1.00
  WS02006231WS02006230        1.13      1.13      1.20      2.54         0.43
  WS02006232WS02006231        1.18      1.18      1.32      0.01         0.04
  WS02006234WS02006232        1.27      1.27      1.32      0.01         0.01
  WS02006235WS02006234        1.25      1.25      1.28      2.19         0.41
  WS02006238WS02006235        1.28      1.28      1.29      0.01         0.13
  WS02006239WS02006238        1.27      1.27      1.28      0.35         0.02
  WS02006240WS02006239        1.23      1.23      1.25      0.33         0.02
  WS02006242WS02006240        1.22      1.22      1.26      0.66         0.37
  WS02006243WS02006242        1.16      1.16      1.25      0.01         0.01
  WS02006245WS02006243        1.13      1.13      1.15      0.01         0.01
  WS02006247WS02006245        1.12      1.13      1.12      1.66         0.45
  WS02006248WS02006247        1.07      1.07      1.12      0.01         0.01
  WS02006249WS02006248        1.04      1.04      1.07      0.98         0.01
  WS02006251WS02006249        1.03      1.04      1.07      0.57         0.58
  WS02006252WS02006251        0.84      0.85      0.87      0.01         0.01
  WS02006253WS02006251        1.02      1.02      1.06      0.31         0.01
  WS02006256WS02006235        2.38      2.38      5.12      0.80         0.01
  WS02006280WS02006229        0.30      0.30      0.39      0.01         0.01
  WS02006284WS02006280        0.23      0.23      0.29      0.01         0.01
  WS02006287WS02006284        0.16      0.16      0.24      0.01         0.01
  YS02001580YS02001583        0.06      0.06      0.11      0.01         0.01
  YS02001583YS02001586        0.07      0.07      0.22      0.01         0.01
  YS02001586YS02001590        0.22      0.22      0.27      0.01         0.01
  YS02001590YS02001593        0.27      0.27      0.29      0.28         0.01
  YS02001593YS02001596        0.28      0.28      0.36      0.01         0.01
  YS02001596YS02001600        0.39      0.39      0.45      0.01         0.01
  YS02001600YS02001601        0.50      0.50      0.73      0.01         0.01
  YS02001601YS02001602        0.64      0.64      0.77      0.47         0.01
  YS02001602YS02001605        0.59      0.59      0.64      1.61         0.01
  YS02001605YS02001607        0.56      0.59      0.56      0.70         0.56
  YS02001607YS02001610        0.22      0.22      0.24      0.01         0.01
  YS02001610YS02001613        0.22      0.22      0.24      0.01         0.01
  YS02001613YS02001616        0.18      0.18      0.22      0.01         0.01
  YS02001616YS02001619        0.17      0.17      0.18      0.01         0.01
  YS02001619YS02001622        0.16      0.17      0.16      0.30         0.16
  YS02001622YS02001625        0.16      0.16      0.31      0.01         0.01
  YS02001625YS02001629        0.10      0.10      0.31      0.01         0.01
  YS02001629YS02163301        0.30      0.30      0.31      0.21         0.18
  YS02001633YS02163601        0.32      0.32      0.34      0.23         0.23
  YS02001641YS02001644        0.20      0.24      0.20      0.82         0.20
  YS02001644YS02001647        0.01      0.01      0.20      0.01         0.01
  YS02001649YS02001757        0.01      0.01      0.01      0.11         0.01
  YS02001757CaochengTiaoxuchi        0.01      0.01      0.01      0.12         0.01
  YS02001770YS02001767        0.01      0.01      0.01      0.22         0.01
  YS02001783YS02001784        0.14      0.16      0.14      0.28         0.14
  YS02001784YS02001785        0.01      0.14      0.01      0.43         0.01
  YS02001786YS02001788        0.01      0.01      0.01      0.35         0.01
  YS02001790YS02001791        0.01      0.01      0.01      0.12         0.01
  YS02001793JiankangQianchi        0.01      0.01      0.11      0.01         0.01
  YS02001882YS02001884        0.10      0.10      0.12      0.01         0.01
  YS02001884YS02001887        0.15      0.15      0.16      0.01         0.01
  YS02001887YS02001890        0.17      0.17      0.18      0.01         0.01
  YS02001890YS02001895        0.09      0.09      0.19      0.01         0.01
  YS02001895YS02001898        0.07      0.07      0.09      0.01         0.01
  YS02001898YS02001901        0.10      0.10      0.14      0.01         0.01
  YS02001901YS02001904        0.13      0.13      0.14      0.01         0.01
  YS02001904YS02001907        0.13      0.13      0.34      0.01         0.01
  YS02001907YS02006553        0.44      0.44      0.48      0.01         0.01
  YS02001910YS02001907        0.19      0.19      0.33      0.01         0.01
  YS02001915YS02001910        0.10      0.10      0.19      0.01         0.01
  YS02001918YS02001915        0.01      0.01      0.10      0.01         0.01
  YS02006553YS02006556        0.26      0.26      0.34      0.01         0.01
  YS02006556YS02006558        0.30      0.30      0.35      0.01         0.01
  YS02006558YS02006561        0.01      0.25      0.01      0.40         0.01
  YS02006561YS02001783        0.01      0.01      0.16      0.01         0.01
  YS02163301YS02001633        0.31      0.31      0.34      0.01         0.01
  YS02163601YS02164001        0.25      0.25      0.34      0.13         0.01
  YS02164001YS02001641        0.24      0.25      0.24      0.38         0.24
  YSB1154YSB6556              0.26      0.26      0.34      0.01         0.01
  YSB1171HS02004479           0.18      0.18      0.35      0.01         0.01
  YSB1174YSB1171              0.30      0.30      0.50      0.01         0.01
  YSB6556YSB1171              0.26      0.26      0.61      0.01         0.01
  
  
  ***************
  Pumping Summary
  ***************
  
  ---------------------------------------------------------------------------------------------------------
                                                  Min       Avg       Max     Total     Power    % Time Off
                        Percent   Number of      Flow      Flow      Flow    Volume     Usage    Pump Curve
  Pump                 Utilized   Start-Ups       LPS       LPS       LPS  10^6 ltr     Kw-hr    Low   High
  ---------------------------------------------------------------------------------------------------------
  CC-R1                   44.79           5      0.00    288.13    683.00     1.707     26.64    0.0  100.0
  CC-R2                   88.54           4      0.00    265.23    683.00     5.019     79.07    0.0  100.0
  CC-S1                   11.46           5      0.00    200.00    200.00     0.660      5.06    0.0   37.2
  CC-S2                   36.46           6      0.00     98.54    200.00     0.812      6.64    0.0   91.4
  JK-R1                   60.42           4      0.00    113.37   1000.00     1.640      4.33    0.0    0.0
  JK-R2                    8.33           2      0.00    416.10   1000.00     1.071      2.37    0.0    0.0
  JK-S                    57.29           4      0.00     75.63    300.00     1.031     22.54    0.0    0.0
  XR-1                    97.91           1      0.00     95.00     95.00     2.679      9.63    0.0    0.0
  XR-2                    93.95           1      0.00     95.00     95.00     2.570      8.79    0.0    0.0
  XR-3                     0.00           0      0.00      0.00      0.00     0.000      0.00    0.0    0.0
  XR-4                     0.00           0      0.00      0.00      0.00     0.000      0.00    0.0    0.0
  

  Analysis begun on:  Thu Jun 15 19:50:49 2023
  Analysis ended on:  Thu Jun 15 19:51:00 2023
  Total elapsed time: 00:00:11