
  OWA STORM WATER MANAGEMENT MODEL - VERSION v5.2.3 (OWA 2023-03-28)
  ------------------------------------------------------------

  WARNING 04: minimum elevation drop used for Conduit WS02004404WS02004405
  WARNING 03: negative offset ignored for Link YS02001904YS02001907
  
  ****************
  Analysis Options
  ****************
  Flow Units ............... LPS
  Process Models:
    Rainfall/Runoff ........ YES
    RDII ................... NO
    Snowmelt ............... NO
    Groundwater ............ NO
    Flow Routing ........... YES
    Ponding Allowed ........ NO
    Water Quality .......... NO
  Infiltration Method ...... HORTON
  Flow Routing Method ...... DYNWAVE
  Surcharge Method ......... EXTRAN
  Starting Date ............ 08/28/2015 08:00:00
  Ending Date .............. 08/28/2015 16:00:00
  Antecedent Dry Days ...... 8.0
  Report Time Step ......... 00:01:00
  Wet Time Step ............ 00:01:00
  Dry Time Step ............ 00:01:00
  Routing Time Step ........ 30.00 sec
  Variable Time Step ....... YES
  Maximum Trials ........... 8
  Number of Threads ........ 1
  Head Tolerance ........... 0.001500 m
  
  
  **************************        Volume         Depth
  Runoff Quantity Continuity     hectare-m            mm
  **************************     ---------       -------
  Total Precipitation ......         3.478        57.413
  Evaporation Loss .........         0.000         0.000
  Infiltration Loss ........         0.239         3.945
  Surface Runoff ...........         3.179        52.471
  Final Storage ............         0.061         1.006
  Continuity Error (%) .....        -0.018
  
  
  **************************        Volume        Volume
  Flow Routing Continuity        hectare-m      10^6 ltr
  **************************     ---------     ---------
  Dry Weather Inflow .......         0.630         6.296
  Wet Weather Inflow .......         3.179        31.785
  Groundwater Inflow .......         0.000         0.000
  RDII Inflow ..............         0.000         0.000
  External Inflow ..........         0.105         1.045
  External Outflow .........         3.034        30.336
  Flooding Loss ............         1.200        12.005
  Evaporation Loss .........         0.000         0.000
  Exfiltration Loss ........         0.000         0.000
  Initial Stored Volume ....         0.303         3.031
  Final Stored Volume ......         0.177         1.769
  Continuity Error (%) .....        -4.631
  
  
  *************************
  Highest Continuity Errors
  *************************
  Node JK-storage (-30.53%)
  Node YS02001884 (5.32%)
  Node YS02001583 (-5.31%)
  Node CC-storage (-4.16%)
  Node HS02004842 (1.58%)
  
  
  ***************************
  Time-Step Critical Elements
  ***************************
  Link WS02006252WS02006251 (60.27%)
  Link WS02006280WS02006229 (12.33%)
  Link YS02001793JiankangQianchi (8.70%)
  Link WS02006238WS02006235 (7.25%)
  Link YS02001791YS02001793 (2.21%)
  
  
  ********************************
  Highest Flow Instability Indexes
  ********************************
  Link WS02006113WS02006111 (41)
  Link WS02006111WS02006112 (19)
  Link WS02006238WS02006235 (18)
  Link WS02006252WS02006251 (17)
  Link WS02004404WS02004405 (16)
  
  
  *********************************
  Most Frequent Nonconverging Nodes
  *********************************
  Node CC-1 (10.11%)
  Node CC-2 (10.11%)
  Node JK-1 (10.11%)
  Node JK-2 (10.11%)
  Node WSC (10.11%)
  
  
  *************************
  Routing Time Step Summary
  *************************
  Minimum Time Step           :     0.01 sec
  Average Time Step           :     1.47 sec
  Maximum Time Step           :    30.00 sec
  % of Time in Steady State   :     0.00
  Average Iterations per Step :     3.12
  % of Steps Not Converging   :    10.11
  Time Step Frequencies       :
     30.000 - 13.228 sec      :     0.01 %
     13.228 -  5.833 sec      :     1.16 %
      5.833 -  2.572 sec      :    11.72 %
      2.572 -  1.134 sec      :    26.34 %
      1.134 -  0.500 sec      :    60.78 %
  
  
  ***************************
  Subcatchment Runoff Summary
  ***************************
  
  ------------------------------------------------------------------------------------------------------------------------------
                            Total      Total      Total      Total     Imperv       Perv      Total       Total     Peak  Runoff
                           Precip      Runon       Evap      Infil     Runoff     Runoff     Runoff      Runoff   Runoff   Coeff
  Subcatchment                 mm         mm         mm         mm         mm         mm         mm    10^6 ltr      LPS
  ------------------------------------------------------------------------------------------------------------------------------
  sub0                      57.41       0.00       0.00       1.00      52.14       3.02      55.16        0.04    29.55   0.961
  sub1                      57.41       0.00       0.00       1.70      49.85       4.61      54.46        0.36   200.71   0.949
  sub10                     57.41       0.00       0.00       1.20      51.54       3.39      54.93        0.61   342.77   0.957
  sub11                     57.41       0.00       0.00       1.18      51.55       3.41      54.96        0.64   379.91   0.957
  sub12                     57.41       0.00       0.00       1.93      48.77       5.54      54.31        0.47   302.14   0.946
  sub14                     57.41       0.00       0.00       1.35      50.99       3.82      54.80        0.52   303.38   0.955
  sub15                     57.41       0.00       0.00       5.26      39.22      11.97      51.19        0.88   464.70   0.892
  sub16                     57.41       0.00       0.00       5.45      37.56      13.50      51.06        0.53   312.26   0.889
  sub17                     57.41       0.00       0.00       5.31      38.11      13.07      51.18        0.44   253.81   0.891
  sub2                      57.41       0.00       0.00       7.47      35.27      13.77      49.04        0.46   205.00   0.854
  sub22                     57.41       0.00       0.00       7.95      31.94      16.74      48.68        3.08  1539.74   0.848
  sub23                     57.41       0.00       0.00       6.50      35.31      14.75      50.06        2.39  1280.72   0.872
  sub3                      57.41       0.00       0.00       8.09      35.23      13.15      48.38        1.09   444.18   0.843
  sub4                      57.41       0.00       0.00       1.89      49.68       4.43      54.11        1.13   494.09   0.942
  sub5                      57.41       0.00       0.00       1.05      52.09       2.97      55.06        0.62   346.46   0.959
  sub60                     57.41       0.00       0.00       1.81      49.32       5.08      54.40        0.71   430.36   0.947
  sub61                     57.41       0.00       0.00       2.62      46.52       7.14      53.66        0.98   596.36   0.935
  sub62                     57.41       0.00       0.00       1.21      51.53       3.39      54.92        1.50   839.78   0.957
  sub63                     57.41       0.00       0.00       4.83      39.79      11.82      51.61        1.17   666.58   0.899
  sub64                     57.41       0.00       0.00       2.44      47.59       6.17      53.76        1.29   684.49   0.936
  sub65                     57.41       0.00       0.00       2.11      48.69       5.35      54.04        1.49   766.46   0.941
  sub66                     57.41       0.00       0.00       5.94      39.69      10.71      50.40        2.35  1000.20   0.878
  sub67                     57.41       0.00       0.00       1.16      51.57       3.43      55.00        1.02   642.25   0.958
  sub68                     57.41       0.00       0.00       2.17      48.18       5.87      54.05        1.49   861.12   0.941
  sub69                     57.41       0.00       0.00       1.93      48.69       6.68      55.37        2.05  1021.47   0.964
  sub7                      57.41       0.00       0.00       1.33      51.00       3.84      54.84        0.18   112.24   0.955
  sub70                     57.41       0.00       0.00       6.37      37.73      13.15      50.87        1.47   563.52   0.886
  sub71                     57.41       0.00       0.00       1.24      51.49       3.36      54.85        1.43   742.97   0.955
  sub72                     57.41       0.00       0.00       1.10      51.99       2.92      54.91        0.75   359.30   0.956
  sub8                      57.41       0.00       0.00       1.35      50.99       3.82      54.81        0.35   206.31   0.955
  sub9                      57.41       0.00       0.00       1.35      50.99       3.82      54.81        0.26   154.20   0.955
  
  
  ******************
  Node Depth Summary
  ******************
  
  ---------------------------------------------------------------------------------
                                 Average  Maximum  Maximum  Time of Max    Reported
                                   Depth    Depth      HGL   Occurrence   Max Depth
  Node                 Type       Meters   Meters   Meters  days hr:min      Meters
  ---------------------------------------------------------------------------------
  HS02004478           JUNCTION     0.18     1.61    10.84     0  02:02        1.60
  HS02004479           JUNCTION     0.26     1.83    11.04     0  02:02        1.83
  HS02004480           JUNCTION     0.22     1.80    11.04     0  02:02        1.80
  HS02004770           JUNCTION     0.23     1.42    11.25     0  01:55        1.42
  HS02004777           JUNCTION     0.26     1.48    11.28     0  01:55        1.48
  HS02004785           JUNCTION     0.15     1.49    11.39     0  01:55        1.49
  HS02004788           JUNCTION     0.12     1.42    11.32     0  01:55        1.39
  HS02004792           JUNCTION     0.17     1.60    11.12     0  01:56        1.60
  HS02004799           JUNCTION     0.28     1.76    10.97     0  01:56        1.76
  HS02004802           JUNCTION     0.28     1.81    10.94     0  02:06        1.78
  HS02004807           JUNCTION     0.25     1.92    11.09     0  01:58        1.92
  HS02004817           JUNCTION     0.55     2.44    11.29     0  02:02        2.44
  HS02004824           JUNCTION     0.13     2.01    11.41     0  01:58        2.01
  HS02004830           JUNCTION     0.13     2.03    11.50     0  01:58        2.03
  HS02004837           JUNCTION     0.11     2.04    11.62     0  02:02        2.04
  HS02004842           JUNCTION     0.40     2.22    11.49     0  01:58        2.22
  HS02004848           JUNCTION     0.09     2.07    11.67     0  01:58        2.07
  HS02004852           JUNCTION     0.09     2.12    11.63     0  01:58        2.12
  HS02004856           JUNCTION     0.15     2.07    11.50     0  01:58        2.07
  HS02004862           JUNCTION     0.11     2.00    11.38     0  01:58        2.00
  HS02004870           JUNCTION     0.10     2.10    11.39     0  01:58        2.10
  HS02004876           JUNCTION     0.14     2.26    11.29     0  01:58        2.21
  HS02004881           JUNCTION     0.08     2.15    11.18     0  01:58        1.72
  HS02004901           JUNCTION     0.24     1.42    11.24     0  01:55        1.42
  WS02001211           JUNCTION     0.62     0.81     5.65     0  02:05        0.81
  WS02001212           JUNCTION     0.36     0.57     5.63     0  02:05        0.57
  WS02001213           JUNCTION     0.59     0.86     5.63     0  02:05        0.86
  WS02003059           JUNCTION     0.65     0.93     5.62     0  02:05        0.93
  WS02003060           JUNCTION     0.38     0.68     5.61     0  02:05        0.68
  WS02003066           JUNCTION     0.24     0.45     6.01     0  02:02        0.45
  WS02003067           JUNCTION     0.56     0.89     6.21     0  02:02        0.89
  WS02003069           JUNCTION     0.43     0.77     5.36     0  02:06        0.77
  WS02003072           JUNCTION     0.49     0.81     5.18     0  02:06        0.81
  WS02003073           JUNCTION     0.29     0.51     4.58     0  02:05        0.51
  WS02004138           JUNCTION     0.13     0.14     7.39     0  00:31        0.14
  WS02004139           JUNCTION     0.56     0.74     5.65     0  02:05        0.74
  WS02004401           JUNCTION     0.77     1.93     7.93     0  02:02        1.93
  WS02004402           JUNCTION     0.79     1.83     7.79     0  02:02        1.81
  WS02004403           JUNCTION     0.80     1.81     7.74     0  02:02        1.81
  WS02004404           JUNCTION     0.87     1.76     7.61     0  02:02        1.76
  WS02004405           JUNCTION     0.86     1.69     7.54     0  02:02        1.64
  WS02004406           JUNCTION     0.85     1.63     7.46     0  02:21        1.63
  WS02004407           JUNCTION     0.26     0.91     7.22     0  02:02        0.90
  WS02004409           JUNCTION     0.54     1.38     7.15     0  02:02        1.38
  WS02004410           JUNCTION     0.55     1.42     7.14     0  02:02        1.42
  WS02004411           JUNCTION     0.55     1.20     6.88     0  02:02        1.19
  WS02004412           JUNCTION     0.56     1.11     6.75     0  02:02        1.10
  WS02004413           JUNCTION     0.70     1.15     6.62     0  02:02        1.14
  WS02006109           JUNCTION     0.94     2.64     9.26     0  01:56        2.64
  WS02006110           JUNCTION     0.89     2.40     8.99     0  02:02        2.38
  WS02006111           JUNCTION     0.39     1.83     8.53     0  02:02        1.83
  WS02006112           JUNCTION     0.97     2.68     8.56     0  00:00        2.39
  WS02006113           JUNCTION     0.47     1.89     8.78     0  02:02        1.89
  WS02006115           JUNCTION     0.68     2.07     8.21     0  01:39        2.03
  WS02006116           JUNCTION     0.75     2.01     8.05     0  02:02        2.01
  WS02006228           JUNCTION     0.98     3.03     9.68     0  01:56        3.03
  WS02006229           JUNCTION     0.98     3.25     9.94     0  01:56        3.25
  WS02006230           JUNCTION     0.92     2.65     9.39     0  01:52        2.65
  WS02006231           JUNCTION     0.66     2.24     9.36     0  02:02        2.24
  WS02006232           JUNCTION     0.77     2.18     9.22     0  01:52        2.18
  WS02006234           JUNCTION     0.66     1.96     9.12     0  01:50        1.96
  WS02006235           JUNCTION     0.67     2.00     9.16     0  02:02        2.00
  WS02006238           JUNCTION     0.70     2.00     9.14     0  02:15        1.93
  WS02006239           JUNCTION     0.65     1.96     9.17     0  02:21        1.96
  WS02006240           JUNCTION     0.59     2.10     9.39     0  01:36        1.90
  WS02006242           JUNCTION     0.64     1.55     8.82     0  01:36        1.55
  WS02006243           JUNCTION     0.53     1.48     8.90     0  01:37        1.37
  WS02006245           JUNCTION     0.52     1.33     8.81     0  01:37        1.30
  WS02006247           JUNCTION     0.53     1.47     8.97     0  01:37        1.38
  WS02006248           JUNCTION     0.48     1.10     8.69     0  01:37        1.10
  WS02006249           JUNCTION     0.50     1.09     8.69     0  01:37        1.09
  WS02006251           JUNCTION     0.56     2.21     9.88     0  01:58        2.09
  WS02006252           JUNCTION     0.39     1.50     9.74     0  01:55        1.50
  WS02006253           JUNCTION     0.62     3.52    11.16     0  01:58        2.89
  WS02006256           JUNCTION     0.96     2.35     9.28     0  00:11        2.35
  WS02006280           JUNCTION     0.24     1.82    10.09     0  01:56        1.82
  WS02006284           JUNCTION     0.51     2.08    10.48     0  02:02        2.08
  WS02006287           JUNCTION     0.24     1.89    10.84     0  02:02        1.89
  WSF200               JUNCTION     0.23     0.52     5.75     0  02:02        0.52
  YS02001580           JUNCTION     0.07     1.05     9.59     0  01:55        0.77
  YS02001583           JUNCTION     0.10     1.14     9.64     0  01:55        0.90
  YS02001586           JUNCTION     0.16     1.13     9.30     0  01:55        1.13
  YS02001590           JUNCTION     0.25     1.40     9.26     0  01:55        1.40
  YS02001593           JUNCTION     0.18     1.32     9.18     0  01:55        1.29
  YS02001596           JUNCTION     0.27     1.74     9.16     0  02:06        1.74
  YS02001600           JUNCTION     0.35     1.87     9.00     0  01:55        1.87
  YS02001601           JUNCTION     0.54     2.06     8.90     0  01:54        2.06
  YS02001602           JUNCTION     0.46     1.87     8.77     0  01:54        1.87
  YS02001605           JUNCTION     0.43     1.78     8.68     0  01:54        1.78
  YS02001607           JUNCTION     0.44     1.68     8.53     0  02:06        1.68
  YS02001610           JUNCTION     0.48     1.68     8.48     0  01:54        1.68
  YS02001613           JUNCTION     0.44     1.69     8.53     0  01:55        1.65
  YS02001616           JUNCTION     0.37     1.61     8.52     0  01:55        1.61
  YS02001619           JUNCTION     0.35     1.61     8.54     0  01:55        1.61
  YS02001622           JUNCTION     0.35     1.58     8.49     0  01:55        1.56
  YS02001625           JUNCTION     0.61     1.78     8.38     0  01:55        1.78
  YS02001629           JUNCTION     0.52     1.85     8.40     0  01:54        1.85
  YS02001633           JUNCTION     0.60     2.08     8.53     0  02:02        2.08
  YS02001641           JUNCTION     0.59     2.05     8.48     0  02:02        2.05
  YS02001644           JUNCTION     0.58     1.92     8.35     0  02:00        1.92
  YS02001647           JUNCTION     0.40     1.78     8.39     0  02:00        1.70
  YS02001649           JUNCTION     0.49     1.96     8.35     0  02:00        1.95
  YS02001652           JUNCTION     0.37     1.84     8.44     0  02:01        1.73
  YS02001655           JUNCTION     0.25     1.86     8.71     0  02:00        1.55
  YS02001658           JUNCTION     0.14     1.82     8.96     0  02:00        1.27
  YS02001661           JUNCTION     0.13     1.38     8.78     0  02:01        1.05
  YS02001664           JUNCTION     0.05     0.58     8.51     0  02:01        0.42
  YS02001745           JUNCTION     0.05     0.80     8.32     0  02:01        0.79
  YS02001748           JUNCTION     0.15     1.75     8.82     0  02:00        1.20
  YS02001751           JUNCTION     0.22     1.71     8.59     0  02:00        1.36
  YS02001754           JUNCTION     0.34     1.79     8.40     0  02:00        1.61
  YS02001757           JUNCTION     0.54     2.02     8.28     0  02:00        1.93
  YS02001759           JUNCTION     0.48     1.97     8.34     0  02:00        1.88
  YS02001762           JUNCTION     0.46     1.97     8.37     0  02:00        1.88
  YS02001765           JUNCTION     0.44     1.94     8.39     0  02:00        1.82
  YS02001767           JUNCTION     0.42     1.92     8.41     0  02:00        1.87
  YS02001770           JUNCTION     0.43     1.95     8.45     0  02:00        1.95
  YS02001774           JUNCTION     0.49     2.04     8.46     0  01:59        1.96
  YS02001779           JUNCTION     0.31     1.68     8.37     0  01:59        1.68
  YS02001783           JUNCTION     0.21     1.40     7.54     0  01:58        1.28
  YS02001784           JUNCTION     0.22     1.22     7.28     0  01:58        1.11
  YS02001786           JUNCTION     0.19     0.98     7.01     0  01:58        0.87
  YS02001788           JUNCTION     0.14     0.62     6.60     0  02:00        0.62
  YS02001790           JUNCTION     0.16     0.73     6.37     0  02:00        0.72
  YS02001791           JUNCTION     0.10     0.44     5.91     0  02:00        0.43
  YS02001793           JUNCTION     0.06     0.25     5.09     0  02:13        0.24
  YS02001882           JUNCTION     0.26     1.74     8.46     0  02:06        1.64
  YS02001884           JUNCTION     0.35     1.82     8.44     0  02:06        1.73
  YS02001887           JUNCTION     0.43     1.86     8.40     0  02:06        1.81
  YS02001890           JUNCTION     0.46     1.81     8.32     0  01:58        1.81
  YS02001895           JUNCTION     0.23     1.60     8.34     0  02:06        1.56
  YS02001898           JUNCTION     0.24     1.61     8.35     0  02:06        1.56
  YS02001901           JUNCTION     0.35     1.75     8.36     0  02:06        1.75
  YS02001904           JUNCTION     0.33     1.66     8.29     0  01:58        1.64
  YS02001907           JUNCTION     0.65     1.96     8.25     0  01:58        1.96
  YS02001910           JUNCTION     0.45     2.10     8.61     0  02:02        2.10
  YS02001915           JUNCTION     0.26     2.00     8.72     0  02:02        2.00
  YS02001918           JUNCTION     0.13     1.81     8.88     0  01:58        1.81
  YS02001920           JUNCTION     0.21     2.14     9.15     0  01:58        2.14
  YS02001923           JUNCTION     0.10     2.03     9.29     0  01:58        2.03
  YS02001926           JUNCTION     0.14     1.90     9.35     0  01:58        1.90
  YS02001929           JUNCTION     0.07     1.78     9.47     0  01:58        1.78
  YS02006553           JUNCTION     0.65     2.04     8.33     0  02:02        2.04
  YS02006556           JUNCTION     0.62     2.01     8.32     0  01:58        1.94
  YS02006558           JUNCTION     0.67     2.19     8.46     0  02:02        2.19
  YS02006561           JUNCTION     0.13     1.09     7.75     0  01:58        0.89
  YS02163301           JUNCTION     0.54     1.96     8.48     0  01:55        1.96
  YS02163601           JUNCTION     0.64     2.03     8.42     0  02:02        2.03
  YS02164001           JUNCTION     0.57     1.94     8.40     0  02:00        1.93
  YSB1154              JUNCTION     0.39     2.10    11.16     0  02:02        2.10
  YSB1171              JUNCTION     0.53     1.95    10.85     0  01:56        1.95
  YSB1174              JUNCTION     0.34     1.90    11.01     0  01:56        1.90
  YSB6556              JUNCTION     0.29     1.80    10.97     0  01:56        1.80
  CC-1                 OUTFALL      0.00     0.00     0.00     0  00:00        0.00
  CC-2                 OUTFALL      0.00     0.00     0.00     0  00:00        0.00
  JK-1                 OUTFALL      0.00     0.00     0.00     0  00:00        0.00
  JK-2                 OUTFALL      0.00     0.00     0.00     0  00:00        0.00
  WSC                  OUTFALL      0.29     0.51     1.18     0  02:07        0.51
  CC-storage           STORAGE      0.90     2.18     7.68     0  03:10        2.18
  JK-storage           STORAGE      0.09     3.00     3.80     0  00:05        3.00
  XR-storage           STORAGE      7.89     9.26     7.26     0  08:00        9.26
  
  
  *******************
  Node Inflow Summary
  *******************
  
  -------------------------------------------------------------------------------------------------
                                  Maximum  Maximum                  Lateral       Total        Flow
                                  Lateral    Total  Time of Max      Inflow      Inflow     Balance
                                   Inflow   Inflow   Occurrence      Volume      Volume       Error
  Node                 Type           LPS      LPS  days hr:min    10^6 ltr    10^6 ltr     Percent
  -------------------------------------------------------------------------------------------------
  HS02004478           JUNCTION      0.00  2294.38     0  02:02           0        8.42      -0.011
  HS02004479           JUNCTION      0.00   464.05     0  01:58           0       0.809       0.093
  HS02004480           JUNCTION      0.00  2104.01     0  01:57           0         6.4       0.035
  HS02004770           JUNCTION   1280.72  1280.72     0  02:02        2.39        2.64       0.107
  HS02004777           JUNCTION      0.03   752.01     0  01:55    0.000864        1.91       0.268
  HS02004785           JUNCTION      0.15   757.52     0  01:55     0.00432        1.91       0.027
  HS02004788           JUNCTION    466.37   828.42     0  01:55       0.928        2.84       0.009
  HS02004792           JUNCTION   1540.02  2307.44     0  02:02        3.08        5.92       0.003
  HS02004799           JUNCTION    303.38  1743.23     0  01:56       0.522        5.67       0.049
  HS02004802           JUNCTION      0.00  1094.59     0  02:02           0        2.07       0.190
  HS02004807           JUNCTION    379.91  1096.08     0  02:02       0.639        2.12       0.198
  HS02004817           JUNCTION      0.60   714.80     0  02:02      0.0173        1.54       1.109
  HS02004824           JUNCTION    494.14   710.37     0  02:02        1.13        1.77       0.041
  HS02004830           JUNCTION      0.15   643.42     0  01:56     0.00432       0.883       0.156
  HS02004837           JUNCTION    349.12   851.30     0  01:56       0.789        1.25       0.048
  HS02004842           JUNCTION      0.00   845.87     0  01:56           0       0.827       1.605
  HS02004848           JUNCTION    444.18  1086.96     0  01:58        1.09        1.75      -0.006
  HS02004852           JUNCTION      0.00  1083.29     0  01:58           0        1.59       0.013
  HS02004856           JUNCTION    154.20  1204.41     0  01:58       0.264        1.86       0.055
  HS02004862           JUNCTION    205.20  1226.72     0  01:58       0.463        2.32      -0.011
  HS02004870           JUNCTION    206.31  1353.27     0  01:58        0.35        2.66      -0.001
  HS02004876           JUNCTION    200.71  1367.45     0  02:02       0.362        3.03       0.027
  HS02004881           JUNCTION    112.24  1484.58     0  02:02       0.185        3.21       0.008
  HS02004901           JUNCTION    312.26   555.85     0  02:03       0.535       0.805       0.215
  WS02001211           JUNCTION      7.35   202.60     0  02:44       0.212        5.44       0.612
  WS02001212           JUNCTION      0.00   207.82     0  03:13           0        5.41       0.289
  WS02001213           JUNCTION      0.00   211.66     0  03:12           0        5.39       0.333
  WS02003059           JUNCTION      0.00   216.36     0  03:12           0        5.38       0.595
  WS02003060           JUNCTION     16.53  1491.28     0  02:05       0.476        15.2       0.097
  WS02003066           JUNCTION      0.00  1289.54     0  02:02           0        9.37       0.016
  WS02003067           JUNCTION      0.00  1290.50     0  02:02           0        9.37       0.046
  WS02003069           JUNCTION      0.32  1491.50     0  02:06     0.00922        15.2       0.101
  WS02003072           JUNCTION      0.00  1491.43     0  02:06           0        15.2       0.137
  WS02003073           JUNCTION      1.82  1493.14     0  02:06      0.0524        15.2       0.142
  WS02004138           JUNCTION      0.00   190.00     0  00:29           0        5.25       0.053
  WS02004139           JUNCTION      0.32   190.32     0  00:31     0.00924        5.26       0.508
  WS02004401           JUNCTION      0.00  1293.00     0  02:02           0        9.48       0.122
  WS02004402           JUNCTION      0.00  1293.34     0  02:02           0        9.47       0.117
  WS02004403           JUNCTION      0.00  1295.11     0  02:02           0        9.46       0.116
  WS02004404           JUNCTION      0.16  1297.33     0  02:02     0.00467        9.46       0.094
  WS02004405           JUNCTION      0.04  1300.32     0  02:02      0.0011        9.45       0.136
  WS02004406           JUNCTION      0.00  1302.87     0  02:02           0        9.43       0.227
  WS02004407           JUNCTION      0.00  1303.49     0  02:02           0        9.41       0.015
  WS02004409           JUNCTION      0.00  1289.97     0  02:02           0        9.41       0.034
  WS02004410           JUNCTION      0.00  1289.37     0  02:02           0         9.4       0.051
  WS02004411           JUNCTION      0.00  1289.48     0  02:02           0         9.4       0.063
  WS02004412           JUNCTION      0.00  1289.58     0  02:02           0        9.39       0.085
  WS02004413           JUNCTION      0.00  1289.79     0  02:02           0        9.38       0.149
  WS02006109           JUNCTION      1.23  1308.01     0  00:00      0.0354        9.22       0.109
  WS02006110           JUNCTION      0.00  1137.20     0  02:21           0           9      -0.395
  WS02006111           JUNCTION      0.00  1176.04     0  00:00           0        9.03      -0.416
  WS02006112           JUNCTION    253.81  2307.30     0  00:00       0.439         9.5      -0.004
  WS02006113           JUNCTION      0.00  1131.43     0  02:21           0        8.99      -0.501
  WS02006115           JUNCTION      0.00  2152.75     0  00:00           0        9.49       0.051
  WS02006116           JUNCTION      0.00  1288.87     0  02:02           0        9.48       0.021
  WS02006228           JUNCTION      0.00  1282.67     0  02:02           0        9.17       0.062
  WS02006229           JUNCTION      0.00  2295.21     0  02:02           0        11.3       0.095
  WS02006230           JUNCTION     10.28  1022.08     0  02:02       0.296        5.11       0.064
  WS02006231           JUNCTION      0.00   454.58     0  02:06           0        3.98      -0.060
  WS02006232           JUNCTION      0.00   453.64     0  02:02           0        3.97       0.103
  WS02006234           JUNCTION      0.00   453.18     0  02:19           0        3.96      -0.043
  WS02006235           JUNCTION      0.00   419.63     0  02:15           0         3.9       0.061
  WS02006238           JUNCTION      0.00   415.70     0  02:05           0        3.59      -0.124
  WS02006239           JUNCTION      0.00   415.42     0  02:05           0        3.58      -0.367
  WS02006240           JUNCTION      0.00   415.04     0  02:05           0        3.58       0.003
  WS02006242           JUNCTION      0.00   415.54     0  02:06           0        3.58       0.034
  WS02006243           JUNCTION      0.00   381.31     0  04:48           0        3.23      -0.285
  WS02006245           JUNCTION      0.00   391.06     0  04:48           0        3.24       0.322
  WS02006247           JUNCTION      0.00   395.09     0  04:47           0        3.24       0.044
  WS02006248           JUNCTION      0.00   402.06     0  04:47           0        3.47      -0.089
  WS02006249           JUNCTION      0.00  1344.18     0  02:02           0        5.87       0.125
  WS02006251           JUNCTION      0.08  1522.90     0  02:02     0.00222        5.97       0.011
  WS02006252           JUNCTION      0.00   400.00     0  04:30           0        2.78      -0.357
  WS02006253           JUNCTION     29.55  1518.88     0  02:02      0.0447        3.31       0.011
  WS02006256           JUNCTION      0.00   300.00     0  01:30           0       0.748      -0.021
  WS02006280           JUNCTION      0.00  2303.88     0  02:02           0        8.41       0.006
  WS02006284           JUNCTION      0.10  2295.34     0  02:02     0.00275         8.4      -0.015
  WS02006287           JUNCTION      0.00  2295.65     0  02:02           0         8.4       0.008
  WSF200               JUNCTION      0.00  1289.63     0  02:02           0        9.37       0.007
  YS02001580           JUNCTION      0.00   128.28     0  01:55           0     0.00418      -2.297
  YS02001583           JUNCTION      0.00   163.38     0  01:55           0      0.0152      -5.044
  YS02001586           JUNCTION    563.52   563.67     0  02:04        1.47        1.48       0.089
  YS02001590           JUNCTION      0.00   320.10     0  02:21           0        1.27       0.006
  YS02001593           JUNCTION      0.00   319.04     0  02:21           0        1.27       0.023
  YS02001596           JUNCTION      0.00   318.43     0  02:06           0        1.27      -0.022
  YS02001600           JUNCTION      0.00   318.65     0  02:06           0        1.27      -0.007
  YS02001601           JUNCTION   1021.47  1338.88     0  02:03        2.05        3.32       0.025
  YS02001602           JUNCTION      0.00   516.44     0  01:54           0        2.25       0.023
  YS02001605           JUNCTION      0.00   515.99     0  01:54           0        2.16       0.030
  YS02001607           JUNCTION      0.00   515.36     0  01:54           0        2.16       0.087
  YS02001610           JUNCTION      0.00   517.30     0  01:54           0        2.22       0.110
  YS02001613           JUNCTION      0.00   518.47     0  01:54           0        1.87       0.097
  YS02001616           JUNCTION      0.00   518.61     0  01:54           0        1.87       0.027
  YS02001619           JUNCTION   1000.20  1000.20     0  02:04        2.35        4.16       0.002
  YS02001622           JUNCTION      0.00   928.67     0  01:57           0        4.09       0.003
  YS02001625           JUNCTION      0.00  1094.39     0  02:04           0        4.14       0.339
  YS02001629           JUNCTION      0.00   936.52     0  01:54           0        3.59      -0.062
  YS02001633           JUNCTION    766.66  1397.91     0  01:58        1.49        5.01       0.065
  YS02001641           JUNCTION      0.00  1396.16     0  01:58           0        4.95       0.055
  YS02001644           JUNCTION    684.53  1825.97     0  01:58        1.29        6.24       0.054
  YS02001647           JUNCTION      0.00  1825.19     0  01:58           0        6.16      -0.004
  YS02001649           JUNCTION      0.00  2126.76     0  01:58           0        7.34       0.005
  YS02001652           JUNCTION      0.00   799.43     0  02:02           0        1.18      -0.145
  YS02001655           JUNCTION      0.15   799.06     0  02:02     0.00443        1.19      -0.022
  YS02001658           JUNCTION      0.00   797.56     0  02:02           0        1.18      -0.051
  YS02001661           JUNCTION      0.00   810.85     0  02:01           0        1.17       0.004
  YS02001664           JUNCTION    666.58   666.58     0  02:02        1.17        1.17      -0.011
  YS02001745           JUNCTION    430.36   430.36     0  02:02       0.715       0.717       0.262
  YS02001748           JUNCTION      0.04   603.48     0  02:00      0.0013       0.744      -0.432
  YS02001751           JUNCTION      0.01   514.00     0  02:01    0.000317        0.75       0.042
  YS02001754           JUNCTION      0.26   514.89     0  02:01     0.00749       0.738      -0.259
  YS02001757           JUNCTION      0.00  3455.83     0  02:01           0        10.6       0.018
  YS02001759           JUNCTION    596.40  1375.36     0  02:03       0.986         2.5      -0.009
  YS02001762           JUNCTION      0.00   817.17     0  02:03           0        1.52       0.017
  YS02001765           JUNCTION      0.00   817.00     0  02:03           0        1.52       0.002
  YS02001767           JUNCTION      0.54   816.83     0  02:03      0.0154        1.52      -0.009
  YS02001770           JUNCTION    839.93   839.93     0  02:02        1.51        1.57      -0.000
  YS02001774           JUNCTION      0.00   269.40     0  01:59           0       0.105       0.988
  YS02001779           JUNCTION      0.01   266.40     0  01:59    0.000144      0.0455      -1.089
  YS02001783           JUNCTION      0.00  1158.04     0  02:01           0        3.92       0.008
  YS02001784           JUNCTION      1.06  1159.90     0  02:02      0.0305        3.95       0.012
  YS02001786           JUNCTION      0.06  1162.05     0  02:02     0.00162        3.95       0.018
  YS02001788           JUNCTION      0.07  1160.33     0  02:02     0.00204        3.95       0.007
  YS02001790           JUNCTION      0.15  1171.59     0  02:01     0.00446        3.96       0.018
  YS02001791           JUNCTION      0.00  1295.21     0  02:00           0        3.96      -0.019
  YS02001793           JUNCTION      0.00  1248.19     0  02:00           0        3.96       0.001
  YS02001882           JUNCTION      0.00    55.68     0  01:56           0      0.0127       5.460
  YS02001884           JUNCTION      0.00    74.54     0  01:56           0      0.0487       5.624
  YS02001887           JUNCTION    642.70   643.73     0  02:01        1.04        1.07       0.418
  YS02001890           JUNCTION      0.00   643.94     0  02:01           0        1.03       0.494
  YS02001895           JUNCTION      0.00   525.63     0  02:02           0       0.991       0.170
  YS02001898           JUNCTION      0.00   516.87     0  02:04           0        0.99       0.030
  YS02001901           JUNCTION      0.00   517.16     0  02:05           0       0.992       0.324
  YS02001904           JUNCTION      0.00   516.73     0  02:04           0       0.996       0.279
  YS02001907           JUNCTION      0.00  1659.08     0  02:02           0        3.26       0.547
  YS02001910           JUNCTION      0.00  1144.38     0  02:03           0        2.27       0.315
  YS02001915           JUNCTION    742.99  1144.20     0  02:03        1.43        2.31       0.068
  YS02001918           JUNCTION      0.00   434.36     0  01:59           0       0.906       0.022
  YS02001920           JUNCTION      2.87   433.43     0  01:59      0.0827       0.889       0.096
  YS02001923           JUNCTION      0.04   412.16     0  01:58     0.00109        0.79      -0.069
  YS02001926           JUNCTION      0.05   560.54     0  01:58      0.0015       0.769      -0.053
  YS02001929           JUNCTION    359.30   373.96     0  01:58       0.755       0.757      -0.017
  YS02006553           JUNCTION      0.00   793.39     0  02:18           0        2.46       0.483
  YS02006556           JUNCTION      0.00   793.41     0  02:18           0        2.46       0.328
  YS02006558           JUNCTION    862.00  1178.27     0  01:58        1.51        3.95       0.092
  YS02006561           JUNCTION      0.00  1178.92     0  01:58           0        3.92      -0.001
  YS02163301           JUNCTION      0.00   928.54     0  01:57           0        3.58       0.041
  YS02163601           JUNCTION      0.11  1397.49     0  01:57     0.00317        4.95       0.096
  YS02164001           JUNCTION      0.00  1397.89     0  01:58           0        4.95       0.048
  YSB1154              JUNCTION    346.46   346.46     0  02:02       0.624       0.625       0.238
  YSB1171              JUNCTION      0.00   743.26     0  02:03           0        1.13       0.565
  YSB1174              JUNCTION    302.14   302.14     0  02:01       0.475       0.475       0.278
  YSB6556              JUNCTION      0.00   349.29     0  02:02           0       0.625       0.211
  CC-1                 OUTFALL       0.00   683.00     0  01:41           0        4.19       0.000
  CC-2                 OUTFALL       0.00   683.00     0  00:20           0         6.4       0.000
  JK-1                 OUTFALL       0.00  1000.00     0  00:05           0        2.81       0.000
  JK-2                 OUTFALL       0.00  1000.00     0  02:00           0        1.76       0.000
  WSC                  OUTFALL       0.00  1492.89     0  02:07           0        15.2       0.000
  CC-storage           STORAGE       0.00  3458.77     0  02:01           0        12.8      -3.995
  JK-storage           STORAGE       0.00  1270.60     0  02:13           0        4.11     -23.387
  XR-storage           STORAGE     200.00   200.00     0  00:00        5.76        6.36       0.001
  
  
  **********************
  Node Surcharge Summary
  **********************
  
  Surcharging occurs when water rises above the top of the highest conduit.
  ---------------------------------------------------------------------
                                               Max. Height   Min. Depth
                                   Hours       Above Crown    Below Rim
  Node                 Type      Surcharged         Meters       Meters
  ---------------------------------------------------------------------
  HS02004478           JUNCTION        0.43          0.688        0.252
  HS02004479           JUNCTION        0.57          1.032        0.018
  HS02004480           JUNCTION        0.61          1.091        0.009
  HS02004770           JUNCTION        0.52          0.720        0.000
  HS02004777           JUNCTION        0.52          0.780        0.000
  HS02004785           JUNCTION        0.47          0.790        0.000
  HS02004788           JUNCTION        0.46          0.720        0.000
  HS02004792           JUNCTION        0.58          0.900        0.000
  HS02004799           JUNCTION        0.71          1.060        0.000
  HS02004802           JUNCTION        0.62          1.102        0.108
  HS02004807           JUNCTION        0.61          1.220        0.000
  HS02004817           JUNCTION        1.26          1.740        0.000
  HS02004824           JUNCTION        0.46          1.310        0.000
  HS02004830           JUNCTION        0.42          1.330        0.000
  HS02004837           JUNCTION        0.38          1.340        0.000
  HS02004842           JUNCTION        0.53          1.520        0.000
  HS02004848           JUNCTION        0.34          1.370        0.000
  HS02004852           JUNCTION        0.36          1.420        0.000
  HS02004856           JUNCTION        0.32          1.300        0.000
  HS02004862           JUNCTION        0.39          1.300        0.000
  HS02004870           JUNCTION        0.40          1.400        0.000
  HS02004876           JUNCTION        0.47          1.560        0.000
  HS02004881           JUNCTION        0.44          1.450        0.000
  HS02004901           JUNCTION        0.53          0.720        0.000
  WS02004401           JUNCTION        1.64          0.927        0.733
  WS02004402           JUNCTION        1.66          0.833        0.907
  WS02004403           JUNCTION        1.66          0.814        1.216
  WS02004404           JUNCTION        1.74          0.759        2.021
  WS02004405           JUNCTION        1.73          0.693        2.107
  WS02004406           JUNCTION        1.71          0.626        1.824
  WS02004409           JUNCTION        0.98          0.384        1.976
  WS02004410           JUNCTION        0.93          0.418        2.122
  WS02004411           JUNCTION        0.85          0.199        2.331
  WS02004412           JUNCTION        0.74          0.106        2.204
  WS02004413           JUNCTION        1.36          0.149        2.051
  WS02006109           JUNCTION        1.94          1.820        0.000
  WS02006110           JUNCTION        1.84          1.490        0.360
  WS02006111           JUNCTION        1.31          1.015        0.855
  WS02006112           JUNCTION        1.88          1.680        0.000
  WS02006113           JUNCTION        1.35          1.086        0.844
  WS02006115           JUNCTION        1.49          1.061        1.189
  WS02006116           JUNCTION        1.51          0.947        1.343
  WS02006228           JUNCTION        1.94          2.200        0.000
  WS02006229           JUNCTION        0.90          1.070        0.000
  WS02006230           JUNCTION        1.76          1.570        0.000
  WS02006231           JUNCTION        1.80          1.530        0.000
  WS02006232           JUNCTION        1.87          1.480        0.000
  WS02006234           JUNCTION        1.81          1.240        0.000
  WS02006235           JUNCTION        1.83          1.290        0.000
  WS02006238           JUNCTION        1.84          1.280        0.150
  WS02006239           JUNCTION        1.81          1.224        0.066
  WS02006240           JUNCTION        1.81          1.390        0.000
  WS02006242           JUNCTION        1.82          0.820        0.000
  WS02006243           JUNCTION        1.78          0.770        0.000
  WS02006245           JUNCTION        1.75          0.617        0.233
  WS02006247           JUNCTION        1.75          0.760        0.000
  WS02006248           JUNCTION        1.70          0.380        0.000
  WS02006249           JUNCTION        1.71          0.390        0.000
  WS02006251           JUNCTION        1.45          1.180        0.000
  WS02006252           JUNCTION        1.83          1.100        0.000
  WS02006253           JUNCTION        1.46          2.480        0.000
  WS02006256           JUNCTION        5.63          2.050        0.000
  WS02006280           JUNCTION        0.73          0.774        0.006
  WS02006284           JUNCTION        0.64          0.800        0.000
  WS02006287           JUNCTION        0.54          0.890        0.000
  YS02001580           JUNCTION        0.55          0.450        0.000
  YS02001583           JUNCTION        0.56          0.500        0.000
  YS02001586           JUNCTION        0.70          0.510        0.000
  YS02001590           JUNCTION        0.80          0.750        0.000
  YS02001593           JUNCTION        0.80          0.695        0.145
  YS02001596           JUNCTION        0.96          1.008        0.062
  YS02001600           JUNCTION        1.32          1.190        0.000
  YS02001601           JUNCTION        1.74          1.440        0.000
  YS02001602           JUNCTION        1.66          1.270        0.000
  YS02001605           JUNCTION        1.63          1.180        0.000
  YS02001607           JUNCTION        0.87          0.680        0.000
  YS02001610           JUNCTION        0.98          0.680        0.000
  YS02001613           JUNCTION        0.86          0.687        0.013
  YS02001616           JUNCTION        0.77          0.610        0.000
  YS02001619           JUNCTION        0.74          0.610        0.000
  YS02001622           JUNCTION        0.74          0.583        0.037
  YS02001625           JUNCTION        1.40          0.780        0.000
  YS02001629           JUNCTION        0.63          0.470        0.000
  YS02001633           JUNCTION        1.48          1.060        0.000
  YS02001641           JUNCTION        1.48          1.046        0.054
  YS02001644           JUNCTION        1.46          0.920        0.000
  YS02001647           JUNCTION        1.08          0.778        0.122
  YS02001649           JUNCTION        1.46          0.958        0.092
  YS02001652           JUNCTION        0.71          0.809        0.321
  YS02001655           JUNCTION        0.19          0.856        0.344
  YS02001658           JUNCTION        0.10          0.816        0.484
  YS02001661           JUNCTION        0.01          0.306        1.084
  YS02001748           JUNCTION        0.01          0.666        0.524
  YS02001751           JUNCTION        0.12          0.714        0.486
  YS02001754           JUNCTION        0.38          0.742        0.408
  YS02001757           JUNCTION        1.57          1.015        0.195
  YS02001759           JUNCTION        1.48          0.973        0.237
  YS02001762           JUNCTION        1.43          0.970        0.180
  YS02001765           JUNCTION        1.32          0.943        0.157
  YS02001767           JUNCTION        1.07          0.920        0.110
  YS02001770           JUNCTION        0.94          0.920        0.000
  YS02001774           JUNCTION        1.41          1.038        0.012
  YS02001779           JUNCTION        0.28          0.680        0.000
  YS02001783           JUNCTION        0.50          0.602        0.998
  YS02001784           JUNCTION        0.48          0.416        1.074
  YS02001786           JUNCTION        0.37          0.180        1.250
  YS02001882           JUNCTION        0.45          0.743        0.087
  YS02001884           JUNCTION        0.46          0.763        0.107
  YS02001887           JUNCTION        0.49          0.809        0.141
  YS02001890           JUNCTION        0.51          0.760        0.000
  YS02001895           JUNCTION        0.43          0.596        0.154
  YS02001898           JUNCTION        0.43          0.581        0.159
  YS02001901           JUNCTION        0.48          0.753        0.117
  YS02001904           JUNCTION        0.47          0.656        0.194
  YS02001907           JUNCTION        0.72          0.950        0.000
  YS02001910           JUNCTION        0.53          1.100        0.000
  YS02001915           JUNCTION        0.44          1.000        0.000
  YS02001918           JUNCTION        0.36          0.810        0.000
  YS02001920           JUNCTION        0.37          1.140        0.000
  YS02001923           JUNCTION        0.01          0.820        0.000
  YS02001926           JUNCTION        0.03          0.900        0.000
  YS02001929           JUNCTION        0.01          0.780        0.000
  YS02006553           JUNCTION        0.74          1.044        0.146
  YS02006556           JUNCTION        0.63          0.967        0.383
  YS02006558           JUNCTION        0.62          1.094        0.306
  YS02006561           JUNCTION        0.32          0.293        0.857
  YS02163301           JUNCTION        1.45          0.963        0.067
  YS02163601           JUNCTION        1.57          1.025        0.055
  YS02164001           JUNCTION        1.46          0.943        0.157
  YSB1154              JUNCTION        0.85          1.400        0.000
  YSB1171              JUNCTION        0.85          1.100        0.000
  YSB1174              JUNCTION        0.75          1.200        0.050
  YSB6556              JUNCTION        0.68          1.100        0.000
  
  
  *********************
  Node Flooding Summary
  *********************
  
  Flooding refers to all water that overflows a node, whether it ponds or not.
  --------------------------------------------------------------------------
                                                             Total   Maximum
                                 Maximum   Time of Max       Flood    Ponded
                        Hours       Rate    Occurrence      Volume     Depth
  Node                 Flooded       LPS   days hr:min    10^6 ltr    Meters
  --------------------------------------------------------------------------
  HS02004770              0.32    745.78      0  02:02       0.454     0.000
  HS02004777              0.01     60.84      0  01:55       0.001     0.000
  HS02004785              0.01    110.15      0  01:55       0.000     0.000
  HS02004788              0.01    214.70      0  01:55       0.001     0.000
  HS02004792              0.32   1165.20      0  02:02       0.770     0.000
  HS02004799              0.14    165.55      0  02:02       0.043     0.000
  HS02004807              0.01     23.48      0  02:02       0.000     0.000
  HS02004817              0.01      0.44      0  02:02       0.000     0.000
  HS02004824              0.01     14.65      0  01:58       0.000     0.000
  HS02004830              0.01     13.91      0  01:58       0.000     0.000
  HS02004837              0.01      0.45      0  02:02       0.000     0.000
  HS02004842              0.01    122.81      0  01:58       0.001     0.000
  HS02004848              0.01    169.92      0  01:58       0.000     0.000
  HS02004852              0.01     21.63      0  01:58       0.000     0.000
  HS02004856              0.01    371.22      0  01:58       0.002     0.000
  HS02004862              0.01    386.72      0  01:58       0.001     0.000
  HS02004870              0.01    277.60      0  01:58       0.000     0.000
  HS02004876              0.01    115.07      0  01:58       0.000     0.000
  HS02004881              0.01     60.26      0  01:58       0.000     0.000
  HS02004901              0.39    555.77      0  02:03       0.551     0.000
  WS02006109              0.36    258.91      0  02:02       0.194     0.000
  WS02006112              0.01   1153.65      0  00:00       0.035     0.000
  WS02006228              0.01      8.37      0  01:56       0.000     0.000
  WS02006229              0.01     20.23      0  01:56       0.000     0.000
  WS02006230              0.65    569.06      0  02:02       0.847     0.000
  WS02006231              0.01      0.34      0  02:02       0.000     0.000
  WS02006232              0.18      3.85      0  02:21       0.000     0.000
  WS02006234              0.71    128.49      0  02:07       0.206     0.000
  WS02006235              0.01      1.04      0  02:02       0.000     0.000
  WS02006240              0.01     83.05      0  01:36       0.000     0.000
  WS02006242              0.82    248.75      0  01:36       0.348     0.000
  WS02006243              0.01    132.12      0  01:37       0.000     0.000
  WS02006247              0.01    132.15      0  01:37       0.000     0.000
  WS02006248              1.13    341.89      0  01:51       1.161     0.000
  WS02006249              1.45   1282.94      0  02:02       3.311     0.000
  WS02006251              0.01     56.99      0  01:58       0.000     0.000
  WS02006252              0.26    306.02      0  01:58       0.126     0.000
  WS02006253              0.01    121.89      0  01:58       0.000     0.000
  WS02006256              0.46    295.13      0  02:25       0.317     0.000
  WS02006284              0.01      0.46      0  02:02       0.000     0.000
  WS02006287              0.01      1.01      0  02:02       0.000     0.000
  YS02001580              0.01    108.54      0  01:55       0.000     0.000
  YS02001583              0.01     60.68      0  01:55       0.000     0.000
  YS02001586              0.42    246.12      0  02:04       0.198     0.000
  YS02001590              0.01      4.21      0  01:55       0.000     0.000
  YS02001600              0.01      1.22      0  01:55       0.000     0.000
  YS02001601              0.62    941.03      0  02:03       1.071     0.000
  YS02001602              0.46     62.88      0  02:02       0.089     0.000
  YS02001605              0.01      5.01      0  01:55       0.000     0.000
  YS02001607              0.01      0.24      0  02:06       0.000     0.000
  YS02001610              0.39    485.02      0  02:05       0.408     0.000
  YS02001616              0.01     20.18      0  01:55       0.000     0.000
  YS02001619              0.01     13.27      0  01:55       0.000     0.000
  YS02001625              0.33   1094.28      0  02:05       0.604     0.000
  YS02001629              0.07    150.87      0  02:01       0.022     0.000
  YS02001633              0.01      0.53      0  02:02       0.000     0.000
  YS02001644              0.08    452.82      0  02:02       0.069     0.000
  YS02001770              0.01      9.99      0  02:00       0.000     0.000
  YS02001779              0.06    211.66      0  01:59       0.013     0.000
  YS02001890              0.12    133.79      0  02:01       0.032     0.000
  YS02001907              0.30   1356.72      0  02:02       0.796     0.000
  YS02001910              0.01      0.66      0  02:02       0.000     0.000
  YS02001915              0.01      0.99      0  02:02       0.000     0.000
  YS02001918              0.01    194.96      0  01:59       0.002     0.000
  YS02001920              0.01     61.97      0  01:58       0.000     0.000
  YS02001923              0.01    165.69      0  01:58       0.001     0.000
  YS02001926              0.01    320.65      0  01:58       0.002     0.000
  YS02001929              0.01    106.03      0  01:58       0.000     0.000
  YSB1154                 0.01      0.18      0  02:02       0.000     0.000
  YSB1171                 0.22    742.88      0  02:03       0.345     0.000
  YSB6556                 0.01     18.59      0  01:56       0.000     0.000
  
  
  **********************
  Storage Volume Summary
  **********************
  
  ------------------------------------------------------------------------------------------------
                         Average    Avg   Evap  Exfil     Maximum    Max    Time of Max    Maximum
                          Volume   Pcnt   Pcnt   Pcnt      Volume   Pcnt     Occurrence    Outflow
  Storage Unit           1000 m   Full   Loss   Loss     1000 m   Full    days hr:min        LPS
  ------------------------------------------------------------------------------------------------
  CC-storage               2.509   39.1    0.0    0.0       6.077   94.8       0  03:10    1766.00
  JK-storage               0.005    1.5    0.0    0.0       0.151   51.7       0  00:05    2300.00
  XR-storage               0.947   65.8    0.0    0.0       1.111   77.1       0  08:00     190.00
  
  
  ***********************
  Outfall Loading Summary
  ***********************
  
  -----------------------------------------------------------
                         Flow       Avg       Max       Total
                         Freq      Flow      Flow      Volume
  Outfall Node           Pcnt       LPS       LPS    10^6 ltr
  -----------------------------------------------------------
  CC-1                  42.86    494.93    683.00       4.190
  CC-2                  50.22    475.08    683.00       6.402
  JK-1                  71.11    171.31   1000.00       2.812
  JK-2                  29.75    218.53   1000.00       1.760
  WSC                   99.99    606.69   1492.89      15.172
  -----------------------------------------------------------
  System                58.78   1966.54   4169.26      30.336
  
  
  ********************
  Link Flow Summary
  ********************
  
  -----------------------------------------------------------------------------
                                 Maximum  Time of Max   Maximum    Max/    Max/
                                  |Flow|   Occurrence   |Veloc|    Full    Full
  Link                 Type          LPS  days hr:min     m/sec    Flow   Depth
  -----------------------------------------------------------------------------
  1                    CONDUIT   1492.89     0  02:07      3.69    0.52    0.51
  HS02004478WS02006287 CONDUIT   2295.65     0  02:02      2.58    0.64    1.00
  HS02004479HS02004480 CONDUIT    462.88     0  01:58      0.66    0.45    1.00
  HS02004480HS02004478 CONDUIT   2101.95     0  01:57      3.00    8.85    1.00
  HS02004770HS02004777 CONDUIT    751.98     0  01:55      1.07    1.38    1.00
  HS02004777HS02004785 CONDUIT    757.37     0  01:55      1.13    0.93    1.00
  HS02004785HS02004788 CONDUIT    632.19     0  02:19      1.35    4.77    1.00
  HS02004788HS02004792 CONDUIT    825.72     0  02:19      1.44    0.55    1.00
  HS02004792HS02004799 CONDUIT   1574.14     0  01:56      2.25    0.96    1.00
  HS02004799HS02004480 CONDUIT   1741.63     0  01:56      2.49    2.20    1.00
  HS02004802HS02004478 CONDUIT   1095.41     0  02:02      1.56    0.97    1.00
  HS02004807HS02004802 CONDUIT   1094.59     0  02:02      1.56    2.09    1.00
  HS02004817HS02004807 CONDUIT    716.75     0  02:02      1.02    0.42    1.00
  HS02004817HS02004824 CONDUIT    714.20     0  02:02      1.02    0.32    1.00
  HS02004824HS02004830 CONDUIT    643.27     0  01:56      0.92    0.84    1.00
  HS02004830HS02004837 CONDUIT    660.85     0  01:56      1.04    0.66    1.00
  HS02004837HS02004842 CONDUIT    845.87     0  01:56      1.21    0.50    1.00
  HS02004842HS02004848 CONDUIT    846.31     0  01:56      1.35    0.49    1.00
  HS02004848HS02004852 CONDUIT   1083.29     0  01:58      1.62    1.22    1.00
  HS02004852HS02004856 CONDUIT   1097.87     0  01:58      1.57    1.26    1.00
  HS02004856HS02004862 CONDUIT   1094.53     0  01:58      1.72    1.09    1.00
  HS02004862HS02004870 CONDUIT   1212.18     0  01:58      1.93    1.31    1.00
  HS02004870HS02004876 CONDUIT   1187.94     0  01:58      1.79    0.79    1.00
  HS02004876HS02004881 CONDUIT   1372.56     0  02:02      2.41   14.60    1.00
  HS02004881HS02006253 CONDUIT   1490.12     0  02:02      2.13    0.29    1.00
  HS02004901HS02004770 CONDUIT    265.78     0  02:14      0.38    1.00    1.00
  WS02001211WS02001212 CONDUIT    207.82     0  03:13      0.54    0.16    0.69
  WS02001212WS02001213 CONDUIT    211.66     0  03:12      1.04    0.33    0.56
  WS02001213WS02003059 CONDUIT    216.36     0  03:12      0.47    0.36    0.89
  WS02003059WS02003060 CONDUIT    222.23     0  03:13      0.66    0.15    0.81
  WS02003060WS02003069 CONDUIT   1491.18     0  02:06      2.08    0.58    0.61
  WS02003066WSF200     CONDUIT   1289.63     0  02:02      3.25    0.22    0.38
  WS02003067WS02003066 CONDUIT   1289.54     0  02:02      1.99    0.41    0.56
  WS02003069WS02003072 CONDUIT   1491.43     0  02:06      1.89    0.72    0.66
  WS02003072WS02003073 CONDUIT   1491.32     0  02:06      2.05    3.22    0.61
  WS02004138WS02004139 CONDUIT    190.00     0  00:31      2.17    0.04    0.41
  WS02004139WS02001211 CONDUIT    195.25     0  02:44      0.55    0.25    0.60
  WS02004401WS02004402 CONDUIT   1293.34     0  02:02      2.07    1.55    1.00
  WS02004402WS02004403 CONDUIT   1295.11     0  02:02      1.84    1.86    1.00
  WS02004403WS02004404 CONDUIT   1297.17     0  02:02      1.68    0.94    1.00
  WS02004404WS02004405 CONDUIT   1300.28     0  02:02      1.86   12.74    1.00
  WS02004405WS02004406 CONDUIT   1302.87     0  02:02      1.80    2.57    1.00
  WS02004406WS02004407 CONDUIT   1303.49     0  02:02      1.71    0.58    0.95
  WS02004407WS02004409 CONDUIT   1289.97     0  02:02      1.86    0.46    0.95
  WS02004409WS02004410 CONDUIT   1289.37     0  02:02      1.64    1.67    1.00
  WS02004410WS02004411 CONDUIT   1289.48     0  02:02      1.64    1.76    1.00
  WS02004411WS02004412 CONDUIT   1289.58     0  02:02      1.64    1.83    1.00
  WS02004412WS02004413 CONDUIT   1289.79     0  02:02      1.64    0.86    1.00
  WS02004413WS02003067 CONDUIT   1290.50     0  02:02      2.00    0.55    0.77
  WS02006109WS02006110 CONDUIT   1306.78     0  00:00      3.15    2.51    1.00
  WS02006110WS02006113 CONDUIT   1131.43     0  02:21      2.25    1.03    1.00
  WS02006111WS02006112 CONDUIT   2307.30     0  00:00      9.18    1.10    1.00
  WS02006112WS02006115 CONDUIT   2152.75     0  00:00      2.85    1.27    1.00
  WS02006113WS02006111 CONDUIT   1176.04     0  00:00      2.74    1.41    1.00
  WS02006115WS02006116 CONDUIT   1288.87     0  02:02      1.81    1.65    1.00
  WS02006116WS02004401 CONDUIT   1293.00     0  02:02      2.21    1.78    1.00
  WS02006228WS02006109 CONDUIT   1282.88     0  02:02      2.55    5.61    1.00
  WS02006229WS02006228 CONDUIT   1282.67     0  02:02      2.55    4.25    1.00
  WS02006230WS02006229 CONDUIT   1011.80     0  02:02      2.63   22.52    1.00
  WS02006231WS02006230 CONDUIT    454.58     0  02:06      1.34    6.90    1.00
  WS02006232WS02006231 CONDUIT    453.64     0  02:02      1.18    0.95    1.00
  WS02006234WS02006232 CONDUIT    453.18     0  02:19      1.18    0.92    1.00
  WS02006235WS02006234 CONDUIT    417.86     0  02:15      1.09    4.41    1.00
  WS02006238WS02006235 CONDUIT    415.70     0  02:05      1.23    0.93    1.00
  WS02006239WS02006238 CONDUIT    415.42     0  02:05      1.08    1.33    1.00
  WS02006240WS02006239 CONDUIT    415.04     0  02:05      1.09    1.31    1.00
  WS02006242WS02006240 CONDUIT    415.54     0  02:06      1.08    1.65    1.00
  WS02006243WS02006242 CONDUIT    370.91     0  04:50      1.14    0.79    1.00
  WS02006245WS02006243 CONDUIT    381.31     0  04:48      1.23    1.13    1.00
  WS02006247WS02006245 CONDUIT    391.06     0  04:48      1.20    3.10    1.00
  WS02006248WS02006247 CONDUIT    395.09     0  04:47      1.23    0.86    1.00
  WS02006249WS02006248 CONDUIT    402.06     0  04:47      1.28    2.20    1.00
  WS02006251WS02006249 CONDUIT   1344.18     0  02:02      3.49    3.88    1.00
  WS02006252WS02006251 CONDUIT   1298.45     0  00:05     24.86    4.77    1.00
  WS02006253WS02006251 CONDUIT   1522.82     0  02:02      3.96    4.57    1.00
  WS02006256WS02006235 CONDUIT    241.88     0  03:30      3.42    2.56    1.00
  WS02006280WS02006229 CONDUIT   2295.21     0  02:02      3.99    0.49    1.00
  WS02006284WS02006280 CONDUIT   2303.88     0  02:02      3.02    0.96    1.00
  WS02006287WS02006284 CONDUIT   2295.25     0  02:02      2.92    1.06    1.00
  WSF200WS02003060     CONDUIT   1289.46     0  02:02      2.29    0.29    0.50
  YS02001580YS02001583 CONDUIT    128.28     0  01:55      0.66    0.50    1.00
  YS02001583YS02001586 CONDUIT    158.43     0  01:55      0.66    0.24    1.00
  YS02001586YS02001590 CONDUIT    320.10     0  02:21      1.25    0.56    1.00
  YS02001590YS02001593 CONDUIT    319.04     0  02:21      1.13    2.00    1.00
  YS02001593YS02001596 CONDUIT    318.43     0  02:06      1.60    0.50    1.00
  YS02001596YS02001600 CONDUIT    318.65     0  02:06      1.13    0.62    1.00
  YS02001600YS02001601 CONDUIT    318.83     0  02:06      1.13    0.55    1.00
  YS02001601YS02001602 CONDUIT    516.44     0  01:54      1.83    1.87    1.00
  YS02001602YS02001605 CONDUIT    515.99     0  01:54      1.82   10.92    1.00
  YS02001605YS02001607 CONDUIT    515.36     0  01:54      1.82    2.83    1.00
  YS02001607YS02001610 CONDUIT    517.30     0  01:54      0.66    0.49    1.00
  YS02001610YS02001613 CONDUIT    518.47     0  01:54      0.66    0.60    1.00
  YS02001613YS02001616 CONDUIT    518.61     0  01:54      0.67    0.44    1.00
  YS02001616YS02001619 CONDUIT    507.22     0  01:54      0.67    0.88    1.00
  YS02001619YS02001622 CONDUIT    928.67     0  01:57      1.18    1.37    1.00
  YS02001622YS02001625 CONDUIT    935.47     0  01:54      1.19    0.50    1.00
  YS02001625YS02001629 CONDUIT    936.52     0  01:54      1.20    0.45    1.00
  YS02001629YS02163301 CONDUIT    928.54     0  01:57      1.18    1.14    1.00
  YS02001633YS02163601 CONDUIT   1397.38     0  01:57      1.78    1.47    1.00
  YS02001641YS02001644 CONDUIT   1395.46     0  01:57      1.78    4.51    1.00
  YS02001644YS02001647 CONDUIT   1825.19     0  01:58      2.32    1.07    1.00
  YS02001647YS02001649 CONDUIT   1844.32     0  01:58      2.35    0.97    1.00
  YS02001649YS02001757 CONDUIT   2125.26     0  01:58      2.72    1.29    1.00
  YS02001652YS02001649 CONDUIT    800.33     0  02:02      1.02    0.40    1.00
  YS02001655YS02001652 CONDUIT    799.43     0  02:02      1.29    0.39    1.00
  YS02001658YS02001655 CONDUIT    798.91     0  02:02      1.89    0.34    1.00
  YS02001661YS02001658 CONDUIT    797.56     0  02:02      2.37    0.31    1.00
  YS02001664YS02001661 CONDUIT    810.85     0  02:01      2.39    0.25    0.78
  YS02001745YS02001748 CONDUIT    603.43     0  02:00      2.24    0.23    0.90
  YS02001748YS02001751 CONDUIT    513.99     0  02:01      1.74    0.26    1.00
  YS02001751YS02001754 CONDUIT    514.63     0  02:01      1.35    0.25    1.00
  YS02001754YS02001757 CONDUIT    515.47     0  02:01      0.66    0.21    1.00
  YS02001757CaochengTiaoxuchi CONDUIT   3458.77     0  02:01      6.30    1.50    1.00
  YS02001759YS02001757 CONDUIT   1375.55     0  02:03      1.75    0.98    1.00
  YS02001762YS02001759 CONDUIT    818.61     0  02:03      1.04    0.94    1.00
  YS02001765YS02001762 CONDUIT    817.17     0  02:03      1.04    0.77    1.00
  YS02001767YS02001765 CONDUIT    817.00     0  02:03      1.04    1.03    1.00
  YS02001770YS02001767 CONDUIT    816.29     0  02:03      1.04    3.23    1.00
  YS02001774YS02001770 CONDUIT    269.40     0  01:59      0.34    0.17    1.00
  YS02001779YS02001774 CONDUIT    266.40     0  01:59      0.35    0.13    1.00
  YS02001783YS02001784 CONDUIT   1158.84     0  02:02      2.31    1.60    1.00
  YS02001784YS02001785 CONDUIT   1162.00     0  02:02      2.31    2.70    1.00
  YS02001786YS02001788 CONDUIT   1160.26     0  02:02      2.47    2.24    0.89
  YS02001788YS02001790 CONDUIT   1171.43     0  02:01      2.71    0.86    0.84
  YS02001790YS02001791 CONDUIT   1295.21     0  02:00      3.42    1.41    0.71
  YS02001791YS02001793 CONDUIT   1248.19     0  02:00      6.80    0.54    0.43
  YS02001793JiankangQianchi CONDUIT   1270.60     0  02:13     24.74    0.10    0.60
  YS02001882YS02001884 CONDUIT     55.68     0  01:56      0.13    0.06    1.00
  YS02001884YS02001887 CONDUIT     74.54     0  01:56      0.09    0.10    1.00
  YS02001887YS02001890 CONDUIT    643.94     0  02:01      0.82    1.10    1.00
  YS02001890YS02001895 CONDUIT    525.63     0  02:02      0.67    0.24    1.00
  YS02001895YS02001898 CONDUIT    516.87     0  02:04      0.66    0.90    1.00
  YS02001898YS02001901 CONDUIT    517.16     0  02:05      0.66    0.33    1.00
  YS02001901YS02001904 CONDUIT    516.73     0  02:04      0.66    0.80    1.00
  YS02001904YS02001907 CONDUIT    516.85     0  02:05      0.66    0.18    1.00
  YS02001907YS02006553 CONDUIT    793.39     0  02:18      0.88    0.93    1.00
  YS02001910YS02001907 CONDUIT   1144.42     0  02:02      1.46    0.65    1.00
  YS02001915YS02001910 CONDUIT   1144.38     0  02:03      1.46    0.57    1.00
  YS02001918YS02001915 CONDUIT    435.30     0  01:59      0.55    0.24    1.00
  YS02001920YS02001918 CONDUIT    434.36     0  01:59      0.64    0.42    1.00
  YS02001923YS02001920 CONDUIT    430.56     0  01:59      0.69    0.19    1.00
  YS02001926YS02001923 CONDUIT    435.10     0  01:58      0.96    0.62    1.00
  YS02001929YS02001926 CONDUIT    387.12     0  01:59      1.13    0.18    1.00
  YS02006553YS02006556 CONDUIT    793.41     0  02:18      1.01    0.68    1.00
  YS02006556YS02006558 CONDUIT    795.76     0  02:18      1.01    0.63    1.00
  YS02006558YS02006561 CONDUIT   1178.92     0  01:58      4.17    2.61    1.00
  YS02006561YS02001783 CONDUIT   1158.04     0  02:01      2.30    0.60    1.00
  YS02163301YS02001633 CONDUIT    928.63     0  01:57      1.18    0.87    1.00
  YS02163601YS02164001 CONDUIT   1397.89     0  01:58      1.78    1.24    1.00
  YS02164001YS02001641 CONDUIT   1396.16     0  01:58      1.78    1.91    1.00
  YSB1154YSB6556       CONDUIT    349.29     0  02:02      0.91    0.63    1.00
  YSB1171HS02004479    CONDUIT    464.05     0  01:58      0.92    0.31    1.00
  YSB1174YSB1171       CONDUIT    302.66     0  02:01      0.79    0.46    1.00
  YSB6556YSB1171       CONDUIT    349.67     0  02:02      0.91    0.36    1.00
  CC-R1                PUMP       683.00     0  01:41              1.00
  CC-R2                PUMP       683.00     0  00:20              1.00
  CC-S1                PUMP       200.00     0  00:05              1.00
  CC-S2                PUMP       200.00     0  01:30              1.00
  JK-R1                PUMP      1000.00     0  00:05              1.00
  JK-R2                PUMP      1000.00     0  02:00              1.00
  JK-S                 PUMP       300.00     0  01:30              1.00
  XR-1                 PUMP        95.00     0  00:10              1.00
  XR-2                 PUMP        95.00     0  00:29              1.00
  XR-3                 PUMP         0.00     0  00:00              0.00
  XR-4                 PUMP         0.00     0  00:00              0.00
  
  
  ***************************
  Flow Classification Summary
  ***************************
  
  -------------------------------------------------------------------------------------
                      Adjusted    ---------- Fraction of Time in Flow Class ---------- 
                       /Actual         Up    Down  Sub   Sup   Up    Down  Norm  Inlet 
  Conduit               Length    Dry  Dry   Dry   Crit  Crit  Crit  Crit  Ltd   Ctrl  
  -------------------------------------------------------------------------------------
  1                       1.00   0.00  0.00  0.00  0.00  1.00  0.00  0.00  0.48  0.00
  HS02004478WS02006287    1.00   0.16  0.00  0.00  0.67  0.18  0.00  0.00  0.59  0.00
  HS02004479HS02004480    1.00   0.04  0.00  0.00  0.96  0.00  0.00  0.00  0.11  0.00
  HS02004480HS02004478    1.00   0.13  0.00  0.00  0.62  0.00  0.00  0.25  0.00  0.00
  HS02004770HS02004777    1.00   0.00  0.13  0.00  0.87  0.00  0.00  0.00  0.03  0.00
  HS02004777HS02004785    1.00   0.00  0.00  0.00  1.00  0.00  0.00  0.00  0.12  0.00
  HS02004785HS02004788    1.00   0.00  0.00  0.00  1.00  0.00  0.00  0.00  0.00  0.00
  HS02004788HS02004792    1.00   0.00  0.00  0.00  0.99  0.01  0.00  0.00  0.91  0.00
  HS02004792HS02004799    1.00   0.00  0.00  0.00  0.99  0.01  0.00  0.00  0.86  0.00
  HS02004799HS02004480    1.00   0.00  0.03  0.00  0.84  0.00  0.12  0.00  0.00  0.00
  HS02004802HS02004478    1.00   0.13  0.01  0.00  0.86  0.00  0.00  0.00  0.02  0.00
  HS02004807HS02004802    1.00   0.13  0.00  0.00  0.85  0.00  0.00  0.02  0.00  0.00
  HS02004817HS02004807    1.00   0.00  0.13  0.00  0.87  0.00  0.00  0.00  0.01  0.00
  HS02004817HS02004824    1.00   0.00  0.00  0.00  1.00  0.00  0.00  0.00  0.81  0.00
  HS02004824HS02004830    1.00   0.00  0.00  0.00  1.00  0.00  0.00  0.00  0.01  0.00
  HS02004830HS02004837    1.00   0.00  0.00  0.00  1.00  0.00  0.00  0.00  0.88  0.00
  HS02004837HS02004842    1.00   0.00  0.00  0.00  0.99  0.01  0.00  0.00  0.11  0.00
  HS02004842HS02004848    1.00   0.00  0.13  0.00  0.87  0.00  0.00  0.00  0.56  0.00
  HS02004848HS02004852    1.00   0.13  0.00  0.00  0.87  0.00  0.00  0.00  0.71  0.00
  HS02004852HS02004856    1.00   0.13  0.01  0.00  0.86  0.00  0.00  0.00  0.67  0.00
  HS02004856HS02004862    1.00   0.00  0.17  0.00  0.83  0.00  0.00  0.00  0.75  0.00
  HS02004862HS02004870    1.00   0.00  0.00  0.00  1.00  0.00  0.00  0.00  0.03  0.00
  HS02004870HS02004876    1.00   0.00  0.00  0.00  1.00  0.00  0.00  0.00  0.86  0.00
  HS02004876HS02004881    1.00   0.01  0.00  0.00  0.84  0.15  0.00  0.00  0.00  0.00
  HS02004881HS02006253    1.00   0.02  0.03  0.00  0.43  0.01  0.00  0.51  0.37  0.00
  HS02004901HS02004770    1.00   0.13  0.00  0.00  0.87  0.00  0.00  0.00  0.00  0.00
  WS02001211WS02001212    1.00   0.00  0.02  0.00  0.98  0.00  0.00  0.00  0.00  0.00
  WS02001212WS02001213    1.00   0.02  0.00  0.00  0.43  0.00  0.55  0.00  0.00  0.00
  WS02001213WS02003059    1.00   0.00  0.01  0.00  0.99  0.00  0.00  0.00  0.00  0.00
  WS02003059WS02003060    1.00   0.00  0.00  0.00  1.00  0.00  0.00  0.00  0.03  0.00
  WS02003060WS02003069    1.00   0.00  0.00  0.00  0.97  0.03  0.00  0.00  0.39  0.00
  WS02003066WSF200        1.00   0.06  0.00  0.00  0.00  0.94  0.00  0.00  0.69  0.00
  WS02003067WS02003066    1.00   0.05  0.01  0.00  0.94  0.00  0.00  0.00  0.00  0.00
  WS02003069WS02003072    1.00   0.00  0.00  0.00  0.99  0.01  0.00  0.00  0.47  0.00
  WS02003072WS02003073    1.00   0.00  0.00  0.00  0.00  0.00  0.00  1.00  0.00  0.00
  WS02004138WS02004139    1.00   0.02  0.00  0.00  0.97  0.01  0.00  0.00  0.98  0.00
  WS02004139WS02001211    1.00   0.00  0.01  0.00  0.99  0.00  0.00  0.00  0.00  0.00
  WS02004401WS02004402    1.00   0.00  0.00  0.00  1.00  0.00  0.00  0.00  0.00  0.00
  WS02004402WS02004403    1.00   0.00  0.00  0.00  1.00  0.00  0.00  0.00  0.00  0.00
  WS02004403WS02004404    1.00   0.00  0.00  0.00  1.00  0.00  0.00  0.00  0.00  0.00
  WS02004404WS02004405    1.00   0.00  0.00  0.00  1.00  0.00  0.00  0.00  0.00  0.00
  WS02004405WS02004406    1.00   0.00  0.00  0.00  1.00  0.00  0.00  0.00  0.00  0.00
  WS02004406WS02004407    1.00   0.00  0.01  0.00  0.99  0.00  0.00  0.00  0.01  0.00
  WS02004407WS02004409    1.00   0.01  0.00  0.00  0.98  0.01  0.00  0.00  0.86  0.00
  WS02004409WS02004410    1.00   0.01  0.00  0.00  0.99  0.00  0.00  0.00  0.00  0.00
  WS02004410WS02004411    1.00   0.01  0.00  0.00  0.99  0.00  0.00  0.00  0.01  0.00
  WS02004411WS02004412    1.00   0.01  0.00  0.00  0.99  0.00  0.00  0.00  0.00  0.00
  WS02004412WS02004413    1.00   0.01  0.00  0.00  0.99  0.00  0.00  0.00  0.02  0.00
  WS02004413WS02003067    1.00   0.01  0.04  0.00  0.00  0.00  0.95  0.00  0.00  0.00
  WS02006109WS02006110    1.00   0.00  0.00  0.00  1.00  0.00  0.00  0.00  0.00  0.00
  WS02006110WS02006113    1.00   0.00  0.00  0.00  1.00  0.00  0.00  0.00  0.00  0.00
  WS02006111WS02006112    1.00   0.00  0.00  0.00  1.00  0.00  0.00  0.00  0.78  0.00
  WS02006112WS02006115    1.00   0.00  0.00  0.00  1.00  0.00  0.00  0.00  0.00  0.00
  WS02006113WS02006111    1.00   0.00  0.00  0.00  0.19  0.81  0.00  0.00  0.12  0.00
  WS02006115WS02006116    1.00   0.00  0.00  0.00  1.00  0.00  0.00  0.00  0.00  0.00
  WS02006116WS02004401    1.00   0.00  0.00  0.00  1.00  0.00  0.00  0.00  0.00  0.00
  WS02006228WS02006109    1.00   0.00  0.00  0.00  1.00  0.00  0.00  0.00  0.00  0.00
  WS02006229WS02006228    1.00   0.00  0.00  0.00  1.00  0.00  0.00  0.00  0.00  0.00
  WS02006230WS02006229    1.00   0.00  0.00  0.00  1.00  0.00  0.00  0.00  0.00  0.00
  WS02006231WS02006230    1.00   0.00  0.00  0.00  0.31  0.00  0.69  0.00  0.00  0.00
  WS02006232WS02006231    1.00   0.00  0.00  0.00  0.99  0.00  0.00  0.00  0.01  0.00
  WS02006234WS02006232    1.00   0.00  0.01  0.00  0.99  0.00  0.00  0.00  0.18  0.00
  WS02006235WS02006234    1.00   0.02  0.00  0.00  0.72  0.00  0.26  0.00  0.00  0.00
  WS02006238WS02006235    1.00   0.02  0.00  0.00  0.98  0.00  0.00  0.00  0.00  0.00
  WS02006239WS02006238    1.00   0.02  0.00  0.00  0.98  0.00  0.00  0.00  0.23  0.00
  WS02006240WS02006239    1.00   0.02  0.00  0.00  0.62  0.00  0.00  0.36  0.01  0.00
  WS02006242WS02006240    1.00   0.01  0.00  0.00  0.98  0.00  0.01  0.00  0.00  0.00
  WS02006243WS02006242    1.00   0.01  0.00  0.00  0.98  0.00  0.00  0.01  0.42  0.00
  WS02006245WS02006243    1.00   0.01  0.00  0.00  0.92  0.00  0.00  0.07  0.01  0.00
  WS02006247WS02006245    1.00   0.01  0.00  0.00  0.98  0.00  0.00  0.01  0.00  0.00
  WS02006248WS02006247    1.00   0.01  0.00  0.00  0.99  0.00  0.00  0.00  0.41  0.00
  WS02006249WS02006248    1.00   0.00  0.01  0.00  0.54  0.00  0.45  0.00  0.00  0.00
  WS02006251WS02006249    1.00   0.00  0.00  0.00  1.00  0.00  0.00  0.00  0.45  0.00
  WS02006252WS02006251    1.00   0.01  0.20  0.00  0.20  0.00  0.59  0.00  0.00  0.00
  WS02006253WS02006251    1.00   0.01  0.00  0.00  0.97  0.00  0.02  0.00  0.00  0.00
  WS02006256WS02006235    1.00   0.02  0.00  0.00  0.98  0.00  0.00  0.00  0.00  0.00
  WS02006280WS02006229    1.00   0.14  0.00  0.00  0.16  0.03  0.00  0.67  0.01  0.00
  WS02006284WS02006280    1.00   0.14  0.00  0.00  0.10  0.01  0.00  0.75  0.00  0.00
  WS02006287WS02006284    1.00   0.10  0.06  0.00  0.57  0.27  0.00  0.00  0.66  0.00
  WSF200WS02003060        1.00   0.00  0.06  0.00  0.70  0.24  0.00  0.00  0.53  0.00
  YS02001580YS02001583    1.00   0.24  0.57  0.00  0.19  0.00  0.00  0.00  0.67  0.00
  YS02001583YS02001586    1.00   0.42  0.33  0.00  0.24  0.00  0.00  0.00  0.67  0.00
  YS02001586YS02001590    1.00   0.13  0.00  0.00  0.43  0.04  0.00  0.41  0.36  0.00
  YS02001590YS02001593    1.00   0.13  0.01  0.00  0.12  0.00  0.74  0.00  0.00  0.00
  YS02001593YS02001596    1.00   0.13  0.00  0.00  0.18  0.01  0.00  0.68  0.06  0.00
  YS02001596YS02001600    1.00   0.14  0.00  0.00  0.25  0.01  0.00  0.61  0.05  0.00
  YS02001600YS02001601    1.00   0.13  0.01  0.00  0.86  0.00  0.00  0.00  0.57  0.00
  YS02001601YS02001602    1.00   0.13  0.01  0.00  0.87  0.00  0.00  0.00  0.00  0.00
  YS02001602YS02001605    1.00   0.13  0.00  0.00  0.86  0.00  0.00  0.00  0.00  0.00
  YS02001605YS02001607    1.00   0.14  0.00  0.00  0.86  0.00  0.00  0.00  0.00  0.00
  YS02001607YS02001610    1.00   0.13  0.01  0.00  0.86  0.00  0.00  0.00  0.01  0.00
  YS02001610YS02001613    1.00   0.13  0.00  0.00  0.87  0.00  0.00  0.00  0.00  0.00
  YS02001613YS02001616    1.00   0.13  0.00  0.00  0.87  0.00  0.00  0.00  0.00  0.00
  YS02001616YS02001619    1.00   0.13  0.00  0.00  0.87  0.00  0.00  0.00  0.00  0.00
  YS02001619YS02001622    1.00   0.13  0.00  0.00  0.87  0.00  0.00  0.00  0.29  0.00
  YS02001622YS02001625    1.00   0.13  0.00  0.00  0.87  0.00  0.00  0.00  0.04  0.00
  YS02001625YS02001629    1.00   0.13  0.05  0.00  0.28  0.00  0.54  0.00  0.00  0.00
  YS02001629YS02163301    1.00   0.15  0.01  0.00  0.84  0.00  0.00  0.00  0.00  0.00
  YS02001633YS02163601    1.00   0.00  0.01  0.00  0.99  0.00  0.00  0.00  0.15  0.00
  YS02001641YS02001644    1.00   0.00  0.01  0.00  0.99  0.00  0.00  0.00  0.00  0.00
  YS02001644YS02001647    1.00   0.00  0.17  0.00  0.83  0.00  0.00  0.00  0.00  0.00
  YS02001647YS02001649    1.00   0.00  0.17  0.00  0.74  0.09  0.00  0.00  0.48  0.00
  YS02001649YS02001757    1.00   0.00  0.00  0.00  0.90  0.10  0.00  0.00  0.52  0.00
  YS02001652YS02001649    1.00   0.00  0.00  0.00  0.97  0.03  0.00  0.00  0.60  0.00
  YS02001655YS02001652    1.00   0.00  0.00  0.00  0.33  0.01  0.00  0.66  0.05  0.00
  YS02001658YS02001655    1.00   0.00  0.14  0.00  0.76  0.10  0.00  0.00  0.56  0.00
  YS02001661YS02001658    1.00   0.14  0.00  0.00  0.62  0.24  0.00  0.00  0.66  0.00
  YS02001664YS02001661    1.00   0.13  0.00  0.00  0.74  0.13  0.00  0.00  0.86  0.00
  YS02001745YS02001748    1.00   0.00  0.00  0.00  0.21  0.01  0.00  0.78  0.14  0.00
  YS02001748YS02001751    1.00   0.00  0.00  0.00  0.89  0.11  0.00  0.00  0.64  0.00
  YS02001751YS02001754    1.00   0.00  0.00  0.00  0.32  0.01  0.00  0.68  0.04  0.00
  YS02001754YS02001757    1.00   0.00  0.00  0.00  1.00  0.00  0.00  0.00  0.67  0.00
  YS02001757CaochengTiaoxuchi    1.00   0.00  0.00  0.00  0.55  0.45  0.00  0.00  0.25  0.00
  YS02001759YS02001757    1.00   0.00  0.00  0.00  1.00  0.00  0.00  0.00  0.58  0.00
  YS02001762YS02001759    1.00   0.00  0.00  0.00  1.00  0.00  0.00  0.00  0.03  0.00
  YS02001765YS02001762    1.00   0.00  0.00  0.00  1.00  0.00  0.00  0.00  0.57  0.00
  YS02001767YS02001765    1.00   0.00  0.00  0.00  1.00  0.00  0.00  0.00  0.00  0.00
  YS02001770YS02001767    1.00   0.00  0.00  0.00  1.00  0.00  0.00  0.00  0.00  0.00
  YS02001774YS02001770    1.00   0.00  0.13  0.00  0.70  0.00  0.17  0.00  0.03  0.00
  YS02001779YS02001774    1.00   0.00  0.00  0.00  1.00  0.00  0.00  0.00  0.63  0.00
  YS02001783YS02001784    1.00   0.00  0.18  0.00  0.82  0.00  0.00  0.00  0.55  0.00
  YS02001784YS02001785    1.00   0.00  0.00  0.00  1.00  0.00  0.00  0.00  0.17  0.00
  YS02001786YS02001788    1.00   0.00  0.00  0.00  0.79  0.21  0.00  0.00  0.00  0.00
  YS02001788YS02001790    1.00   0.00  0.00  0.00  0.21  0.79  0.00  0.00  0.80  0.00
  YS02001790YS02001791    1.00   0.00  0.00  0.00  0.01  0.99  0.00  0.00  0.16  0.00
  YS02001791YS02001793    1.00   0.00  0.00  0.00  0.00  1.00  0.00  0.00  0.01  0.00
  YS02001793JiankangQianchi    1.00   0.00  0.00  0.00  0.26  0.74  0.00  0.00  0.35  0.00
  YS02001882YS02001884    1.00   0.15  0.01  0.00  0.84  0.00  0.00  0.00  0.00  0.00
  YS02001884YS02001887    1.00   0.06  0.05  0.00  0.89  0.00  0.00  0.00  0.00  0.00
  YS02001887YS02001890    1.00   0.00  0.00  0.00  0.97  0.00  0.03  0.00  0.00  0.00
  YS02001890YS02001895    1.00   0.00  0.16  0.00  0.84  0.00  0.00  0.00  0.00  0.00
  YS02001895YS02001898    1.00   0.16  0.00  0.00  0.82  0.00  0.02  0.00  0.00  0.00
  YS02001898YS02001901    1.00   0.17  0.00  0.00  0.83  0.00  0.00  0.00  0.01  0.00
  YS02001901YS02001904    1.00   0.16  0.00  0.00  0.84  0.00  0.00  0.00  0.00  0.00
  YS02001904YS02001907    1.00   0.00  0.16  0.00  0.84  0.00  0.00  0.00  0.00  0.00
  YS02001907YS02006553    1.00   0.00  0.02  0.00  0.98  0.00  0.00  0.00  0.00  0.00
  YS02001910YS02001907    1.00   0.00  0.00  0.00  0.97  0.00  0.00  0.03  0.12  0.00
  YS02001915YS02001910    1.00   0.00  0.00  0.00  0.97  0.03  0.00  0.00  0.16  0.00
  YS02001918YS02001915    1.00   0.00  0.00  0.00  0.98  0.02  0.00  0.00  0.76  0.00
  YS02001920YS02001918    1.00   0.00  0.00  0.00  1.00  0.00  0.00  0.00  0.01  0.00
  YS02001923YS02001920    1.00   0.00  0.00  0.00  1.00  0.00  0.00  0.00  0.93  0.00
  YS02001926YS02001923    1.00   0.00  0.07  0.00  0.06  0.00  0.87  0.00  0.00  0.00
  YS02001929YS02001926    1.00   0.00  0.13  0.00  0.87  0.00  0.00  0.00  0.83  0.00
  YS02006553YS02006556    1.00   0.01  0.00  0.00  0.99  0.00  0.00  0.00  0.03  0.00
  YS02006556YS02006558    1.00   0.00  0.00  0.00  1.00  0.00  0.00  0.00  0.00  0.00
  YS02006558YS02006561    1.00   0.18  0.00  0.00  0.05  0.77  0.00  0.00  0.19  0.00
  YS02006561YS02001783    1.00   0.18  0.00  0.00  0.08  0.74  0.00  0.00  0.69  0.00
  YS02163301YS02001633    1.00   0.00  0.15  0.00  0.85  0.00  0.00  0.00  0.00  0.00
  YS02163601YS02164001    1.00   0.00  0.08  0.00  0.92  0.00  0.00  0.00  0.00  0.00
  YS02164001YS02001641    1.00   0.01  0.07  0.00  0.92  0.00  0.00  0.00  0.05  0.00
  YSB1154YSB6556          1.00   0.12  0.00  0.00  0.88  0.00  0.00  0.00  0.02  0.00
  YSB1171HS02004479       1.00   0.04  0.00  0.00  0.95  0.00  0.00  0.01  0.10  0.00
  YSB1174YSB1171          1.00   0.05  0.04  0.00  0.91  0.00  0.00  0.00  0.00  0.00
  YSB6556YSB1171          1.00   0.04  0.08  0.00  0.88  0.00  0.00  0.00  0.00  0.00
  
  
  *************************
  Conduit Surcharge Summary
  *************************
  
  ----------------------------------------------------------------------------
                                                           Hours        Hours 
                         --------- Hours Full --------   Above Full   Capacity
  Conduit                Both Ends  Upstream  Dnstream   Normal Flow   Limited
  ----------------------------------------------------------------------------
  HS02004478WS02006287        0.43      0.43      0.62      0.01         0.01
  HS02004479HS02004480        0.62      0.62      0.64      0.01         0.01
  HS02004480HS02004478        0.55      0.61      0.55      1.69         0.55
  HS02004770HS02004777        0.52      0.52      0.52      0.11         0.08
  HS02004777HS02004785        0.47      0.47      0.52      0.01         0.01
  HS02004785HS02004788        0.46      0.47      0.46      1.46         0.43
  HS02004788HS02004792        0.46      0.46      0.58      0.01         0.01
  HS02004792HS02004799        0.58      0.58      0.71      0.01         0.01
  HS02004799HS02004480        0.61      0.61      0.71      0.82         0.01
  HS02004802HS02004478        0.56      0.56      0.63      0.01         0.01
  HS02004807HS02004802        0.61      0.61      0.62      0.20         0.20
  HS02004817HS02004807        0.61      0.61      1.26      0.01         0.01
  HS02004817HS02004824        0.46      0.46      1.26      0.01         0.01
  HS02004824HS02004830        0.42      0.42      0.46      0.01         0.01
  HS02004830HS02004837        0.38      0.38      0.42      0.01         0.01
  HS02004837HS02004842        0.38      0.38      0.53      0.01         0.01
  HS02004842HS02004848        0.34      0.34      0.53      0.01         0.01
  HS02004848HS02004852        0.34      0.34      0.36      0.02         0.01
  HS02004852HS02004856        0.36      0.36      0.39      0.02         0.01
  HS02004856HS02004862        0.32      0.32      0.39      0.01         0.01
  HS02004862HS02004870        0.39      0.39      0.40      0.09         0.09
  HS02004870HS02004876        0.40      0.40      0.47      0.01         0.01
  HS02004876HS02004881        0.44      0.47      0.44      1.48         0.44
  HS02004881HS02006253        0.44      0.44      1.46      0.01         0.01
  HS02004901HS02004770        0.52      0.52      0.53      0.01         0.01
  WS02003072WS02003073        0.01      0.01      0.01      3.36         0.01
  WS02004401WS02004402        1.64      1.64      1.66      1.44         1.41
  WS02004402WS02004403        1.65      1.66      1.66      1.63         1.62
  WS02004403WS02004404        1.66      1.66      1.74      0.01         0.01
  WS02004404WS02004405        1.73      1.74      1.73      4.59         1.73
  WS02004405WS02004406        1.71      1.73      1.71      1.85         1.71
  WS02004406WS02004407        0.01      0.01      1.71      0.01         0.01
  WS02004407WS02004409        0.01      0.01      0.98      0.01         0.01
  WS02004409WS02004410        0.93      0.98      0.93      1.49         0.93
  WS02004410WS02004411        0.85      0.93      0.85      1.60         0.85
  WS02004411WS02004412        0.74      0.85      0.74      1.62         0.74
  WS02004412WS02004413        0.74      0.74      1.36      0.01         0.01
  WS02004413WS02003067        0.01      0.01      1.36      0.01         0.01
  WS02006109WS02006110        1.83      1.84      1.97      1.85         0.01
  WS02006110WS02006113        1.35      1.35      1.97      0.30         0.01
  WS02006111WS02006112        1.31      1.31      2.60      0.01         0.01
  WS02006112WS02006115        1.49      1.49      1.87      0.01         0.01
  WS02006113WS02006111        1.34      1.35      1.34      1.45         1.34
  WS02006115WS02006116        1.51      1.51      1.51      1.49         1.47
  WS02006116WS02004401        1.63      1.63      1.64      1.62         1.58
  WS02006228WS02006109        1.94      1.97      1.94      3.39         1.94
  WS02006229WS02006228        1.94      1.95      1.94      2.41         1.94
  WS02006230WS02006229        2.10      2.29      2.10      4.58         1.06
  WS02006231WS02006230        1.76      1.76      1.81      4.22         0.99
  WS02006232WS02006231        1.80      1.80      1.87      0.01         0.14
  WS02006234WS02006232        1.82      1.82      1.87      0.01         0.01
  WS02006235WS02006234        1.81      1.81      1.83      3.96         0.97
  WS02006238WS02006235        1.84      1.84      1.85      0.01         0.34
  WS02006239WS02006238        1.84      1.84      1.84      0.95         0.05
  WS02006240WS02006239        1.81      1.81      1.81      0.94         0.02
  WS02006242WS02006240        1.81      1.81      1.84      1.47         0.85
  WS02006243WS02006242        1.79      1.79      1.82      0.01         0.01
  WS02006245WS02006243        1.76      1.76      1.78      0.18         0.01
  WS02006247WS02006245        1.75      1.76      1.75      3.49         0.58
  WS02006248WS02006247        1.71      1.71      1.75      0.01         0.01
  WS02006249WS02006248        1.70      1.70      1.71      2.29         0.01
  WS02006251WS02006249        1.69      1.69      1.71      1.44         1.22
  WS02006252WS02006251        1.69      1.70      1.82      0.26         0.01
  WS02006253WS02006251        1.68      1.69      1.70      0.76         0.01
  WS02006256WS02006235        4.23      4.24      5.62      0.39         0.01
  WS02006280WS02006229        0.75      0.75      0.90      0.01         0.01
  WS02006284WS02006280        0.64      0.64      0.73      0.01         0.01
  WS02006287WS02006284        0.54      0.54      0.66      0.24         0.24
  YS02001580YS02001583        0.55      0.55      0.61      0.01         0.01
  YS02001583YS02001586        0.56      0.56      0.70      0.01         0.01
  YS02001586YS02001590        0.71      0.71      0.79      0.01         0.01
  YS02001590YS02001593        0.80      0.80      0.82      0.84         0.01
  YS02001593YS02001596        0.81      0.81      0.96      0.01         0.01
  YS02001596YS02001600        1.08      1.08      1.32      0.01         0.01
  YS02001600YS02001601        1.48      1.48      1.74      0.01         0.01
  YS02001601YS02001602        1.66      1.66      1.77      1.07         0.01
  YS02001602YS02001605        1.63      1.63      1.66      2.31         0.01
  YS02001605YS02001607        1.59      1.63      1.63      1.39         1.28
  YS02001607YS02001610        0.87      0.87      0.98      0.01         0.01
  YS02001610YS02001613        0.86      0.86      0.98      0.01         0.01
  YS02001613YS02001616        0.77      0.77      0.86      0.01         0.01
  YS02001616YS02001619        0.74      0.74      0.77      0.01         0.01
  YS02001619YS02001622        0.74      0.74      0.74      0.76         0.70
  YS02001622YS02001625        0.74      0.74      1.40      0.01         0.01
  YS02001625YS02001629        0.63      0.63      1.40      0.01         0.01
  YS02001629YS02163301        1.42      1.42      1.45      0.30         0.29
  YS02001633YS02163601        1.48      1.48      1.57      0.48         0.48
  YS02001641YS02001644        1.46      1.48      1.46      1.44         1.24
  YS02001644YS02001647        1.07      1.07      1.46      0.05         0.01
  YS02001647YS02001649        1.08      1.08      1.46      0.01         0.01
  YS02001649YS02001757        1.45      1.46      1.57      0.40         0.33
  YS02001652YS02001649        0.88      0.88      1.46      0.01         0.01
  YS02001655YS02001652        0.19      0.19      0.71      0.01         0.01
  YS02001658YS02001655        0.09      0.09      0.19      0.01         0.01
  YS02001661YS02001658        0.01      0.01      0.09      0.01         0.01
  YS02001664YS02001661        0.01      0.01      0.02      0.01         0.01
  YS02001745YS02001748        0.01      0.01      0.01      0.01         0.01
  YS02001748YS02001751        0.07      0.07      0.12      0.01         0.01
  YS02001751YS02001754        0.12      0.12      0.38      0.01         0.01
  YS02001754YS02001757        0.62      0.62      1.57      0.01         0.01
  YS02001757CaochengTiaoxuchi        1.34      1.57      2.32      0.40         0.13
  YS02001759YS02001757        1.48      1.48      1.57      0.01         0.02
  YS02001762YS02001759        1.42      1.42      1.48      0.01         0.03
  YS02001765YS02001762        1.31      1.32      1.43      0.01         0.01
  YS02001767YS02001765        1.07      1.07      1.32      0.02         0.05
  YS02001770YS02001767        1.05      1.07      1.07      0.50         0.45
  YS02001774YS02001770        0.94      0.94      1.41      0.01         0.01
  YS02001779YS02001774        0.28      0.28      1.41      0.01         0.01
  YS02001783YS02001784        0.48      0.50      0.48      0.66         0.48
  YS02001784YS02001785        0.37      0.48      0.37      0.91         0.37
  YS02001786YS02001788        0.01      0.37      0.01      0.76         0.01
  YS02001790YS02001791        0.01      0.01      0.01      0.46         0.01
  YS02001793JiankangQianchi        0.01      0.01      0.12      0.01         0.01
  YS02001882YS02001884        0.45      0.45      0.46      0.01         0.01
  YS02001884YS02001887        0.48      0.48      0.49      0.01         0.01
  YS02001887YS02001890        0.51      0.51      0.52      0.06         0.01
  YS02001890YS02001895        0.43      0.43      0.53      0.01         0.01
  YS02001895YS02001898        0.43      0.43      0.43      0.01         0.01
  YS02001898YS02001901        0.44      0.44      0.48      0.01         0.01
  YS02001901YS02001904        0.47      0.47      0.48      0.01         0.01
  YS02001904YS02001907        0.47      0.47      0.74      0.01         0.01
  YS02001907YS02006553        0.92      0.92      1.00      0.01         0.01
  YS02001910YS02001907        0.53      0.53      0.72      0.01         0.01
  YS02001915YS02001910        0.44      0.44      0.53      0.01         0.01
  YS02001918YS02001915        0.36      0.36      0.44      0.01         0.01
  YS02001920YS02001918        0.36      0.36      0.37      0.01         0.01
  YS02001923YS02001920        0.31      0.31      0.37      0.01         0.01
  YS02001926YS02001923        0.01      0.01      0.03      0.01         0.01
  YS02001929YS02001926        0.01      0.01      0.03      0.01         0.01
  YS02006553YS02006556        0.63      0.63      0.74      0.01         0.01
  YS02006556YS02006558        0.68      0.68      0.76      0.01         0.01
  YS02006558YS02006561        0.39      0.62      0.39      0.86         0.39
  YS02006561YS02001783        0.32      0.32      0.50      0.01         0.01
  YS02163301YS02001633        1.45      1.45      1.50      0.01         0.01
  YS02163601YS02164001        1.46      1.46      1.57      0.22         0.01
  YS02164001YS02001641        1.46      1.46      1.48      0.75         0.70
  YSB1154YSB6556              0.68      0.68      0.85      0.01         0.01
  YSB1171HS02004479           0.57      0.57      0.85      0.01         0.01
  YSB1174YSB1171              0.75      0.75      1.14      0.01         0.01
  YSB6556YSB1171              0.68      0.68      1.34      0.01         0.01
  
  
  ***************
  Pumping Summary
  ***************
  
  ---------------------------------------------------------------------------------------------------------
                                                  Min       Avg       Max     Total     Power    % Time Off
                        Percent   Number of      Flow      Flow      Flow    Volume     Usage    Pump Curve
  Pump                 Utilized   Start-Ups       LPS       LPS       LPS  10^6 ltr     Kw-hr    Low   High
  ---------------------------------------------------------------------------------------------------------
  CC-R1                   50.00          13      0.00    494.93    683.00     4.189     73.56    0.0   80.4
  CC-R2                   66.67          12      0.00    475.08    683.00     6.398    110.21    0.0   84.7
  CC-S1                   32.29          12      0.00    197.78    200.00     1.817     10.25    0.0   31.2
  CC-S2                   19.79          11      0.00    181.00    200.00     0.912      6.12    0.0   45.1
  JK-R1                   56.25          11      0.00    171.31   1000.00     2.818      7.55    0.0    0.0
  JK-R2                   19.79           8      0.00    218.53   1000.00     1.761      5.22    0.0    0.0
  JK-S                    43.75          12      0.00     69.16    300.00     0.748     16.27    0.0    0.0
  XR-1                    97.91           1      0.00     95.00     95.00     2.679      9.63    0.0    0.0
  XR-2                    93.95           1      0.00     95.00     95.00     2.570      8.79    0.0    0.0
  XR-3                     0.00           0      0.00      0.00      0.00     0.000      0.00    0.0    0.0
  XR-4                     0.00           0      0.00      0.00      0.00     0.000      0.00    0.0    0.0
  

  Analysis begun on:  Thu Jun 15 19:50:48 2023
  Analysis ended on:  Thu Jun 15 19:51:00 2023
  Total elapsed time: 00:00:12