
  OWA STORM WATER MANAGEMENT MODEL - VERSION v5.2.3 (OWA 2023-03-28)
  ------------------------------------------------------------

  WARNING 04: minimum elevation drop used for Conduit WS02004404WS02004405
  WARNING 03: negative offset ignored for Link YS02001904YS02001907
  
  ****************
  Analysis Options
  ****************
  Flow Units ............... LPS
  Process Models:
    Rainfall/Runoff ........ YES
    RDII ................... NO
    Snowmelt ............... NO
    Groundwater ............ NO
    Flow Routing ........... YES
    Ponding Allowed ........ NO
    Water Quality .......... NO
  Infiltration Method ...... HORTON
  Flow Routing Method ...... DYNWAVE
  Surcharge Method ......... EXTRAN
  Starting Date ............ 08/28/2015 08:00:00
  Ending Date .............. 08/28/2015 16:00:00
  Antecedent Dry Days ...... 8.0
  Report Time Step ......... 00:01:00
  Wet Time Step ............ 00:01:00
  Dry Time Step ............ 00:01:00
  Routing Time Step ........ 30.00 sec
  Variable Time Step ....... YES
  Maximum Trials ........... 8
  Number of Threads ........ 1
  Head Tolerance ........... 0.001500 m
  
  
  **************************        Volume         Depth
  Runoff Quantity Continuity     hectare-m            mm
  **************************     ---------       -------
  Total Precipitation ......         3.133        51.712
  Evaporation Loss .........         0.000         0.000
  Infiltration Loss ........         0.235         3.877
  Surface Runoff ...........         2.837        46.839
  Final Storage ............         0.061         1.006
  Continuity Error (%) .....        -0.019
  
  
  **************************        Volume        Volume
  Flow Routing Continuity        hectare-m      10^6 ltr
  **************************     ---------     ---------
  Dry Weather Inflow .......         0.630         6.296
  Wet Weather Inflow .......         2.837        28.375
  Groundwater Inflow .......         0.000         0.000
  RDII Inflow ..............         0.000         0.000
  External Inflow ..........         0.105         1.045
  External Outflow .........         2.880        28.802
  Flooding Loss ............         0.990         9.905
  Evaporation Loss .........         0.000         0.000
  Exfiltration Loss ........         0.000         0.000
  Initial Stored Volume ....         0.303         3.031
  Final Stored Volume ......         0.177         1.773
  Continuity Error (%) .....        -4.472
  
  
  *************************
  Highest Continuity Errors
  *************************
  Node JK-storage (-27.94%)
  Node YS02001583 (-5.77%)
  Node YS02001884 (5.14%)
  Node CC-storage (-4.15%)
  Node HS02004842 (1.68%)
  
  
  ***************************
  Time-Step Critical Elements
  ***************************
  Link WS02006252WS02006251 (58.32%)
  Link WS02006280WS02006229 (15.32%)
  Link YS02001793JiankangQianchi (8.81%)
  Link WS02006238WS02006235 (6.18%)
  Link WS02003066WSF200 (1.97%)
  
  
  ********************************
  Highest Flow Instability Indexes
  ********************************
  Link WS02006113WS02006111 (38)
  Link WS02006111WS02006112 (22)
  Link WS02006252WS02006251 (13)
  Link WS02004404WS02004405 (12)
  Link WS02006238WS02006235 (11)
  
  
  *********************************
  Most Frequent Nonconverging Nodes
  *********************************
  Node CC-1 (6.28%)
  Node CC-2 (6.28%)
  Node JK-1 (6.28%)
  Node JK-2 (6.28%)
  Node WSC (6.28%)
  
  
  *************************
  Routing Time Step Summary
  *************************
  Minimum Time Step           :     0.00 sec
  Average Time Step           :     1.46 sec
  Maximum Time Step           :    30.00 sec
  % of Time in Steady State   :     0.00
  Average Iterations per Step :     2.74
  % of Steps Not Converging   :     6.28
  Time Step Frequencies       :
     30.000 - 13.228 sec      :     0.01 %
     13.228 -  5.833 sec      :     1.22 %
      5.833 -  2.572 sec      :    11.85 %
      2.572 -  1.134 sec      :    25.42 %
      1.134 -  0.500 sec      :    61.50 %
  
  
  ***************************
  Subcatchment Runoff Summary
  ***************************
  
  ------------------------------------------------------------------------------------------------------------------------------
                            Total      Total      Total      Total     Imperv       Perv      Total       Total     Peak  Runoff
                           Precip      Runon       Evap      Infil     Runoff     Runoff     Runoff      Runoff   Runoff   Coeff
  Subcatchment                 mm         mm         mm         mm         mm         mm         mm    10^6 ltr      LPS
  ------------------------------------------------------------------------------------------------------------------------------
  sub0                      51.71       0.00       0.00       0.99      46.84       2.63      49.47        0.04    28.21   0.957
  sub1                      51.71       0.00       0.00       1.68      44.77       4.01      48.79        0.32   187.80   0.943
  sub10                     51.71       0.00       0.00       1.18      46.29       2.96      49.25        0.54   321.91   0.952
  sub11                     51.71       0.00       0.00       1.17      46.31       2.97      49.28        0.57   358.72   0.953
  sub12                     51.71       0.00       0.00       1.90      43.81       4.83      48.64        0.43   286.69   0.941
  sub14                     51.71       0.00       0.00       1.33      45.80       3.33      49.12        0.47   285.62   0.950
  sub15                     51.71       0.00       0.00       5.17      35.23      10.34      45.57        0.78   430.87   0.881
  sub16                     51.71       0.00       0.00       5.36      33.74      11.71      45.45        0.48   291.59   0.879
  sub17                     51.71       0.00       0.00       5.22      34.24      11.33      45.57        0.39   236.86   0.881
  sub2                      51.71       0.00       0.00       7.34      31.67      11.79      43.47        0.41   188.15   0.841
  sub22                     51.71       0.00       0.00       7.82      28.69      14.42      43.11        2.72  1421.05   0.834
  sub23                     51.71       0.00       0.00       6.39      31.72      12.75      44.46        2.12  1187.41   0.860
  sub3                      51.71       0.00       0.00       7.94      31.63      11.20      42.83        0.96   405.36   0.828
  sub4                      51.71       0.00       0.00       1.86      44.61       3.83      48.44        1.01   452.27   0.937
  sub5                      51.71       0.00       0.00       1.03      46.79       2.59      49.38        0.56   324.90   0.955
  sub60                     51.71       0.00       0.00       1.78      44.30       4.42      48.72        0.64   406.18   0.942
  sub61                     51.71       0.00       0.00       2.58      41.79       6.21      48.00        0.88   561.99   0.928
  sub62                     51.71       0.00       0.00       1.19      46.29       2.95      49.24        1.35   787.54   0.952
  sub63                     51.71       0.00       0.00       4.75      35.74      10.25      45.99        1.04   621.67   0.889
  sub64                     51.71       0.00       0.00       2.40      42.75       5.35      48.10        1.16   636.90   0.930
  sub65                     51.71       0.00       0.00       2.08      43.73       4.64      48.38        1.33   711.60   0.936
  sub66                     51.71       0.00       0.00       5.83      35.64       9.16      44.80        2.09   913.68   0.866
  sub67                     51.71       0.00       0.00       1.15      46.33       2.99      49.32        0.92   610.18   0.954
  sub68                     51.71       0.00       0.00       2.14      43.28       5.10      48.39        1.33   808.38   0.936
  sub69                     51.71       0.00       0.00       1.89      43.84       5.87      49.71        1.84   949.58   0.961
  sub7                      51.71       0.00       0.00       1.31      45.81       3.34      49.16        0.17   106.18   0.951
  sub70                     51.71       0.00       0.00       6.23      33.97      11.35      45.31        1.31   514.25   0.876
  sub71                     51.71       0.00       0.00       1.22      46.25       2.92      49.17        1.29   691.81   0.951
  sub72                     51.71       0.00       0.00       1.08      46.69       2.54      49.23        0.68   332.17   0.952
  sub8                      51.71       0.00       0.00       1.32      45.80       3.33      49.13        0.31   194.50   0.950
  sub9                      51.71       0.00       0.00       1.33      45.80       3.33      49.13        0.24   145.26   0.950
  
  
  ******************
  Node Depth Summary
  ******************
  
  ---------------------------------------------------------------------------------
                                 Average  Maximum  Maximum  Time of Max    Reported
                                   Depth    Depth      HGL   Occurrence   Max Depth
  Node                 Type       Meters   Meters   Meters  days hr:min      Meters
  ---------------------------------------------------------------------------------
  HS02004478           JUNCTION     0.18     1.57    10.79     0  01:59        1.55
  HS02004479           JUNCTION     0.25     1.69    10.90     0  01:57        1.66
  HS02004480           JUNCTION     0.21     1.67    10.91     0  01:59        1.63
  HS02004770           JUNCTION     0.23     1.42    11.25     0  01:57        1.42
  HS02004777           JUNCTION     0.25     1.48    11.28     0  01:57        1.47
  HS02004785           JUNCTION     0.15     1.49    11.39     0  01:57        1.39
  HS02004788           JUNCTION     0.12     1.42    11.32     0  01:57        1.38
  HS02004792           JUNCTION     0.16     1.60    11.12     0  01:57        1.60
  HS02004799           JUNCTION     0.27     1.76    10.97     0  01:57        1.76
  HS02004802           JUNCTION     0.28     1.79    10.92     0  01:59        1.73
  HS02004807           JUNCTION     0.24     1.92    11.09     0  01:59        1.80
  HS02004817           JUNCTION     0.54     2.43    11.28     0  01:59        2.21
  HS02004824           JUNCTION     0.13     2.01    11.41     0  01:59        1.79
  HS02004830           JUNCTION     0.13     2.03    11.50     0  01:59        1.83
  HS02004837           JUNCTION     0.11     2.04    11.62     0  01:58        1.84
  HS02004842           JUNCTION     0.40     2.22    11.49     0  01:59        2.22
  HS02004848           JUNCTION     0.09     2.03    11.63     0  01:59        1.94
  HS02004852           JUNCTION     0.09     2.07    11.59     0  01:59        2.01
  HS02004856           JUNCTION     0.15     2.07    11.50     0  01:59        2.07
  HS02004862           JUNCTION     0.10     2.00    11.38     0  01:59        2.00
  HS02004870           JUNCTION     0.10     1.99    11.28     0  01:59        1.93
  HS02004876           JUNCTION     0.14     2.08    11.11     0  01:59        1.95
  HS02004881           JUNCTION     0.08     2.15    11.18     0  01:59        1.67
  HS02004901           JUNCTION     0.23     1.42    11.24     0  01:57        1.42
  WS02001211           JUNCTION     0.62     0.81     5.64     0  02:06        0.81
  WS02001212           JUNCTION     0.37     0.57     5.63     0  02:05        0.57
  WS02001213           JUNCTION     0.59     0.86     5.63     0  02:05        0.86
  WS02003059           JUNCTION     0.66     0.93     5.62     0  02:05        0.93
  WS02003060           JUNCTION     0.39     0.68     5.61     0  02:04        0.68
  WS02003066           JUNCTION     0.24     0.45     6.00     0  02:02        0.45
  WS02003067           JUNCTION     0.57     0.88     6.20     0  02:01        0.88
  WS02003069           JUNCTION     0.44     0.77     5.36     0  02:05        0.77
  WS02003072           JUNCTION     0.50     0.81     5.18     0  02:05        0.81
  WS02003073           JUNCTION     0.30     0.51     4.58     0  02:06        0.51
  WS02004138           JUNCTION     0.13     0.14     7.39     0  00:31        0.14
  WS02004139           JUNCTION     0.56     0.74     5.65     0  02:05        0.74
  WS02004401           JUNCTION     0.78     1.81     7.81     0  02:01        1.81
  WS02004402           JUNCTION     0.80     1.75     7.71     0  02:01        1.74
  WS02004403           JUNCTION     0.81     1.68     7.61     0  02:02        1.67
  WS02004404           JUNCTION     0.88     1.70     7.55     0  02:02        1.69
  WS02004405           JUNCTION     0.87     1.64     7.49     0  02:01        1.64
  WS02004406           JUNCTION     0.87     1.57     7.40     0  02:29        1.57
  WS02004407           JUNCTION     0.27     0.89     7.20     0  02:02        0.89
  WS02004409           JUNCTION     0.56     1.37     7.14     0  02:01        1.36
  WS02004410           JUNCTION     0.56     1.28     7.00     0  02:02        1.27
  WS02004411           JUNCTION     0.57     1.19     6.87     0  02:02        1.19
  WS02004412           JUNCTION     0.57     1.09     6.73     0  02:02        1.09
  WS02004413           JUNCTION     0.71     1.14     6.61     0  02:02        1.14
  WS02006109           JUNCTION     0.95     2.64     9.26     0  01:57        2.64
  WS02006110           JUNCTION     0.90     2.37     8.96     0  02:02        2.37
  WS02006111           JUNCTION     0.39     1.69     8.39     0  02:01        1.69
  WS02006112           JUNCTION     0.99     2.68     8.56     0  00:00        2.31
  WS02006113           JUNCTION     0.48     1.80     8.69     0  02:01        1.80
  WS02006115           JUNCTION     0.69     1.90     8.04     0  02:01        1.90
  WS02006116           JUNCTION     0.77     1.89     7.93     0  02:01        1.89
  WS02006228           JUNCTION     0.99     3.03     9.68     0  01:57        3.01
  WS02006229           JUNCTION     0.99     3.24     9.93     0  01:57        3.20
  WS02006230           JUNCTION     0.94     2.65     9.39     0  01:53        2.65
  WS02006231           JUNCTION     0.67     2.23     9.35     0  02:29        2.23
  WS02006232           JUNCTION     0.78     2.18     9.22     0  01:53        2.18
  WS02006234           JUNCTION     0.67     1.96     9.12     0  01:53        1.96
  WS02006235           JUNCTION     0.69     2.00     9.16     0  02:29        2.00
  WS02006238           JUNCTION     0.71     2.02     9.17     0  03:05        1.93
  WS02006239           JUNCTION     0.66     1.91     9.12     0  03:05        1.79
  WS02006240           JUNCTION     0.61     1.73     9.03     0  03:05        1.64
  WS02006242           JUNCTION     0.66     1.55     8.82     0  01:45        1.55
  WS02006243           JUNCTION     0.55     1.48     8.90     0  01:45        1.48
  WS02006245           JUNCTION     0.53     1.56     9.05     0  01:45        1.26
  WS02006247           JUNCTION     0.54     1.45     8.95     0  01:45        1.24
  WS02006248           JUNCTION     0.48     1.10     8.69     0  01:45        1.10
  WS02006249           JUNCTION     0.51     1.09     8.69     0  01:45        1.09
  WS02006251           JUNCTION     0.56     2.21     9.88     0  01:59        2.11
  WS02006252           JUNCTION     0.39     1.50     9.74     0  01:59        1.50
  WS02006253           JUNCTION     0.62     3.52    11.16     0  01:59        2.92
  WS02006256           JUNCTION     0.97     2.35     9.28     0  00:11        2.35
  WS02006280           JUNCTION     0.23     1.76    10.03     0  01:57        1.73
  WS02006284           JUNCTION     0.50     1.94    10.34     0  01:59        1.91
  WS02006287           JUNCTION     0.24     1.72    10.68     0  01:59        1.70
  WSF200               JUNCTION     0.24     0.51     5.75     0  02:04        0.51
  YS02001580           JUNCTION     0.06     1.05     9.59     0  01:56        1.05
  YS02001583           JUNCTION     0.10     1.14     9.64     0  01:56        0.95
  YS02001586           JUNCTION     0.15     1.13     9.30     0  01:56        1.13
  YS02001590           JUNCTION     0.24     1.40     9.26     0  01:55        1.39
  YS02001593           JUNCTION     0.17     1.34     9.20     0  01:56        1.32
  YS02001596           JUNCTION     0.24     1.68     9.10     0  01:56        1.66
  YS02001600           JUNCTION     0.30     1.87     9.00     0  01:56        1.86
  YS02001601           JUNCTION     0.49     2.06     8.90     0  01:56        2.06
  YS02001602           JUNCTION     0.41     1.87     8.77     0  01:56        1.87
  YS02001605           JUNCTION     0.38     1.78     8.68     0  01:56        1.77
  YS02001607           JUNCTION     0.38     1.66     8.50     0  01:56        1.64
  YS02001610           JUNCTION     0.43     1.68     8.48     0  01:56        1.68
  YS02001613           JUNCTION     0.39     1.69     8.53     0  01:56        1.65
  YS02001616           JUNCTION     0.32     1.61     8.52     0  01:56        1.60
  YS02001619           JUNCTION     0.30     1.61     8.54     0  01:56        1.60
  YS02001622           JUNCTION     0.29     1.59     8.49     0  01:56        1.56
  YS02001625           JUNCTION     0.55     1.78     8.38     0  01:56        1.78
  YS02001629           JUNCTION     0.43     1.85     8.40     0  01:56        1.85
  YS02001633           JUNCTION     0.51     2.02     8.48     0  02:00        1.99
  YS02001641           JUNCTION     0.50     1.96     8.39     0  02:00        1.94
  YS02001644           JUNCTION     0.49     1.92     8.35     0  02:00        1.92
  YS02001647           JUNCTION     0.30     1.81     8.42     0  02:01        1.68
  YS02001649           JUNCTION     0.39     2.05     8.44     0  02:01        1.83
  YS02001652           JUNCTION     0.27     2.16     8.76     0  02:01        1.64
  YS02001655           JUNCTION     0.17     2.15     9.00     0  02:01        1.44
  YS02001658           JUNCTION     0.09     2.30     9.44     0  02:01        1.24
  YS02001661           JUNCTION     0.12     1.61     9.02     0  02:01        1.09
  YS02001664           JUNCTION     0.04     0.61     8.54     0  02:01        0.56
  YS02001745           JUNCTION     0.04     0.90     8.42     0  02:01        0.68
  YS02001748           JUNCTION     0.09     2.27     9.35     0  02:01        1.15
  YS02001751           JUNCTION     0.15     2.08     8.96     0  02:01        1.30
  YS02001754           JUNCTION     0.25     2.15     8.76     0  02:01        1.54
  YS02001757           JUNCTION     0.44     2.13     8.39     0  02:01        1.85
  YS02001759           JUNCTION     0.38     2.08     8.45     0  02:01        1.84
  YS02001762           JUNCTION     0.36     2.08     8.48     0  02:01        1.84
  YS02001765           JUNCTION     0.34     2.03     8.48     0  02:01        1.83
  YS02001767           JUNCTION     0.32     1.99     8.48     0  02:01        1.84
  YS02001770           JUNCTION     0.33     1.95     8.45     0  02:01        1.91
  YS02001774           JUNCTION     0.39     2.00     8.42     0  02:01        1.97
  YS02001779           JUNCTION     0.21     1.68     8.37     0  01:59        1.68
  YS02001783           JUNCTION     0.20     1.46     7.60     0  01:59        1.22
  YS02001784           JUNCTION     0.22     1.25     7.32     0  01:59        1.12
  YS02001786           JUNCTION     0.19     0.99     7.02     0  01:59        0.87
  YS02001788           JUNCTION     0.13     0.63     6.60     0  01:59        0.62
  YS02001790           JUNCTION     0.16     0.72     6.36     0  02:07        0.72
  YS02001791           JUNCTION     0.10     0.43     5.90     0  02:13        0.43
  YS02001793           JUNCTION     0.06     0.25     5.09     0  02:05        0.25
  YS02001882           JUNCTION     0.26     1.79     8.50     0  01:58        1.63
  YS02001884           JUNCTION     0.35     1.86     8.48     0  01:58        1.73
  YS02001887           JUNCTION     0.42     1.88     8.42     0  01:58        1.82
  YS02001890           JUNCTION     0.45     1.81     8.32     0  01:58        1.81
  YS02001895           JUNCTION     0.23     1.57     8.31     0  01:59        1.56
  YS02001898           JUNCTION     0.24     1.57     8.30     0  01:58        1.57
  YS02001901           JUNCTION     0.35     1.68     8.29     0  01:59        1.67
  YS02001904           JUNCTION     0.33     1.65     8.28     0  01:59        1.63
  YS02001907           JUNCTION     0.64     1.96     8.25     0  01:59        1.96
  YS02001910           JUNCTION     0.44     1.97     8.47     0  01:59        1.94
  YS02001915           JUNCTION     0.26     1.92     8.64     0  01:59        1.88
  YS02001918           JUNCTION     0.13     1.81     8.88     0  01:59        1.81
  YS02001920           JUNCTION     0.21     2.14     9.15     0  01:59        2.09
  YS02001923           JUNCTION     0.09     2.03     9.29     0  01:59        2.03
  YS02001926           JUNCTION     0.13     1.90     9.35     0  01:59        1.90
  YS02001929           JUNCTION     0.07     1.78     9.47     0  01:59        1.68
  YS02006553           JUNCTION     0.64     2.03     8.31     0  01:59        1.98
  YS02006556           JUNCTION     0.62     2.07     8.39     0  01:59        1.95
  YS02006558           JUNCTION     0.66     2.13     8.40     0  01:59        2.00
  YS02006561           JUNCTION     0.12     1.16     7.82     0  01:59        0.90
  YS02163301           JUNCTION     0.46     1.93     8.44     0  02:00        1.91
  YS02163601           JUNCTION     0.55     2.05     8.45     0  02:00        2.00
  YS02164001           JUNCTION     0.48     1.96     8.42     0  02:00        1.93
  YSB1154              JUNCTION     0.38     1.98    11.03     0  01:57        1.91
  YSB1171              JUNCTION     0.52     1.95    10.85     0  01:57        1.95
  YSB1174              JUNCTION     0.33     1.81    10.92     0  01:57        1.80
  YSB6556              JUNCTION     0.28     1.80    10.97     0  01:57        1.74
  CC-1                 OUTFALL      0.00     0.00     0.00     0  00:00        0.00
  CC-2                 OUTFALL      0.00     0.00     0.00     0  00:00        0.00
  JK-1                 OUTFALL      0.00     0.00     0.00     0  00:00        0.00
  JK-2                 OUTFALL      0.00     0.00     0.00     0  00:00        0.00
  WSC                  OUTFALL      0.30     0.51     1.18     0  02:07        0.51
  CC-storage           STORAGE      0.80     1.96     7.46     0  03:05        1.96
  JK-storage           STORAGE      0.09     3.00     3.80     0  00:05        3.00
  XR-storage           STORAGE      7.90     9.26     7.26     0  08:00        9.26
  
  
  *******************
  Node Inflow Summary
  *******************
  
  -------------------------------------------------------------------------------------------------
                                  Maximum  Maximum                  Lateral       Total        Flow
                                  Lateral    Total  Time of Max      Inflow      Inflow     Balance
                                   Inflow   Inflow   Occurrence      Volume      Volume       Error
  Node                 Type           LPS      LPS  days hr:min    10^6 ltr    10^6 ltr     Percent
  -------------------------------------------------------------------------------------------------
  HS02004478           JUNCTION      0.00  2274.45     0  02:02           0        7.78      -0.011
  HS02004479           JUNCTION      0.00   510.91     0  01:59           0       0.765       0.087
  HS02004480           JUNCTION      0.00  2137.97     0  01:57           0        5.94       0.036
  HS02004770           JUNCTION   1187.41  1187.41     0  02:02        2.12        2.36       0.104
  HS02004777           JUNCTION      0.03   776.16     0  01:56    0.000864        1.78       0.273
  HS02004785           JUNCTION      0.15   780.84     0  01:56     0.00432        1.78       0.017
  HS02004788           JUNCTION    432.54   850.99     0  01:57       0.832        2.61      -0.001
  HS02004792           JUNCTION   1421.33  2170.90     0  02:02        2.73        5.34      -0.005
  HS02004799           JUNCTION    285.62  1757.07     0  01:58       0.468        5.22       0.050
  HS02004802           JUNCTION      0.00   946.16     0  02:03           0        1.87       0.207
  HS02004807           JUNCTION    358.72   945.91     0  02:03       0.573        1.92       0.203
  HS02004817           JUNCTION      0.60   597.60     0  02:03      0.0173        1.41       1.162
  HS02004824           JUNCTION    452.32   680.77     0  01:57        1.01        1.61       0.042
  HS02004830           JUNCTION      0.15   677.25     0  01:57     0.00432       0.813       0.163
  HS02004837           JUNCTION    328.26   894.70     0  01:57       0.726        1.15       0.046
  HS02004842           JUNCTION      0.00   897.94     0  01:58           0        0.77       1.711
  HS02004848           JUNCTION    405.36  1127.70     0  01:58       0.964        1.57      -0.008
  HS02004852           JUNCTION      0.00  1112.29     0  01:59           0        1.42       0.001
  HS02004856           JUNCTION    145.26  1236.38     0  01:59       0.236        1.66       0.068
  HS02004862           JUNCTION    188.35  1318.92     0  01:59       0.411        2.06      -0.001
  HS02004870           JUNCTION    194.50  1431.47     0  01:59       0.314        2.38      -0.002
  HS02004876           JUNCTION    187.80  1424.96     0  01:59       0.324         2.7       0.010
  HS02004881           JUNCTION    106.18  1501.36     0  02:00       0.166        2.87       0.001
  HS02004901           JUNCTION    291.59   519.59     0  02:03       0.476         0.7       0.216
  WS02001211           JUNCTION      7.35   206.99     0  01:53       0.212        5.44       0.612
  WS02001212           JUNCTION      0.00   208.13     0  02:40           0        5.41       0.289
  WS02001213           JUNCTION      0.00   211.85     0  02:40           0        5.39       0.332
  WS02003059           JUNCTION      0.00   215.99     0  02:40           0        5.38       0.595
  WS02003060           JUNCTION     16.53  1483.40     0  02:06       0.476        15.1       0.098
  WS02003066           JUNCTION      0.00  1280.92     0  02:02           0        9.26       0.016
  WS02003067           JUNCTION      0.00  1280.77     0  02:02           0        9.27       0.046
  WS02003069           JUNCTION      0.32  1483.50     0  02:05     0.00922        15.1       0.102
  WS02003072           JUNCTION      0.00  1483.42     0  02:05           0        15.1       0.138
  WS02003073           JUNCTION      1.82  1485.41     0  02:06      0.0524        15.1       0.143
  WS02004138           JUNCTION      0.00   190.00     0  00:29           0        5.25       0.053
  WS02004139           JUNCTION      0.32   190.32     0  00:31     0.00924        5.26       0.508
  WS02004401           JUNCTION      0.00  1280.64     0  02:02           0        9.37       0.118
  WS02004402           JUNCTION      0.00  1280.58     0  02:02           0        9.37       0.117
  WS02004403           JUNCTION      0.00  1280.60     0  02:02           0        9.36       0.116
  WS02004404           JUNCTION      0.16  1281.35     0  02:02     0.00467        9.35       0.094
  WS02004405           JUNCTION      0.04  1281.40     0  02:02      0.0011        9.34       0.135
  WS02004406           JUNCTION      0.00  1281.00     0  02:02           0        9.33       0.231
  WS02004407           JUNCTION      0.00  1280.72     0  02:02           0         9.3       0.015
  WS02004409           JUNCTION      0.00  1280.80     0  02:02           0         9.3       0.029
  WS02004410           JUNCTION      0.00  1280.98     0  02:02           0         9.3       0.049
  WS02004411           JUNCTION      0.00  1281.10     0  02:02           0        9.29       0.062
  WS02004412           JUNCTION      0.00  1280.89     0  02:02           0        9.29       0.085
  WS02004413           JUNCTION      0.00  1280.80     0  02:02           0        9.28       0.143
  WS02006109           JUNCTION      1.23  1308.01     0  00:00      0.0354        9.13       0.122
  WS02006110           JUNCTION      0.00  1121.53     0  02:16           0        8.94      -0.397
  WS02006111           JUNCTION      0.00  1176.04     0  00:00           0        8.97      -0.424
  WS02006112           JUNCTION    236.86  2307.30     0  00:00       0.391         9.4      -0.006
  WS02006113           JUNCTION      0.00  1121.55     0  02:16           0        8.93      -0.510
  WS02006115           JUNCTION      0.00  2152.75     0  00:00           0        9.38       0.044
  WS02006116           JUNCTION      0.00  1280.53     0  02:02           0        9.37       0.027
  WS02006228           JUNCTION      0.00  1273.42     0  02:02           0        9.08       0.062
  WS02006229           JUNCTION      0.00  2274.85     0  02:02           0          11       0.091
  WS02006230           JUNCTION     10.28  1011.85     0  02:02       0.296        5.17       0.091
  WS02006231           JUNCTION      0.00   453.29     0  02:07           0        4.15      -0.111
  WS02006232           JUNCTION      0.00   453.44     0  02:07           0        4.14       0.098
  WS02006234           JUNCTION      0.00   453.15     0  02:15           0        4.13      -0.047
  WS02006235           JUNCTION      0.00   416.12     0  03:11           0        4.07       0.052
  WS02006238           JUNCTION      0.00   415.29     0  02:19           0        3.71      -0.134
  WS02006239           JUNCTION      0.00   414.90     0  02:19           0        3.69      -0.240
  WS02006240           JUNCTION      0.00   414.75     0  02:19           0        3.67       0.010
  WS02006242           JUNCTION      0.00   414.85     0  02:15           0        3.67       0.039
  WS02006243           JUNCTION      0.00   381.08     0  04:19           0        3.35      -0.148
  WS02006245           JUNCTION      0.00   390.81     0  04:17           0        3.35       0.193
  WS02006247           JUNCTION      0.00   393.53     0  04:17           0        3.35       0.002
  WS02006248           JUNCTION      0.00   401.77     0  04:17           0        3.56      -0.028
  WS02006249           JUNCTION      0.00  1332.44     0  02:01           0         5.7       0.077
  WS02006251           JUNCTION      0.08  1531.45     0  02:00     0.00222        5.77       0.005
  WS02006252           JUNCTION      0.00   402.49     0  02:00           0         2.9      -0.323
  WS02006253           JUNCTION     28.21  1529.73     0  02:00      0.0401        2.94      -0.028
  WS02006256           JUNCTION      0.00   300.00     0  01:35           0       0.665       0.019
  WS02006280           JUNCTION      0.00  2274.59     0  02:02           0        7.76       0.012
  WS02006284           JUNCTION      0.10  2274.31     0  02:02     0.00275        7.76      -0.008
  WS02006287           JUNCTION      0.00  2274.18     0  02:02           0        7.76       0.010
  WSF200               JUNCTION      0.00  1280.90     0  02:02           0        9.26       0.007
  YS02001580           JUNCTION      0.00   125.33     0  01:56           0      0.0044      -0.049
  YS02001583           JUNCTION      0.00   189.16     0  01:56           0      0.0153      -5.453
  YS02001586           JUNCTION    514.25   514.36     0  02:04        1.31        1.32       0.101
  YS02001590           JUNCTION      0.00   318.02     0  02:07           0        1.17      -0.025
  YS02001593           JUNCTION      0.00   317.98     0  02:07           0        1.17       0.015
  YS02001596           JUNCTION      0.00   317.99     0  02:12           0        1.17      -0.011
  YS02001600           JUNCTION      0.00   317.96     0  02:08           0        1.17      -0.011
  YS02001601           JUNCTION    949.58  1266.95     0  02:03        1.84        3.01       0.021
  YS02001602           JUNCTION      0.00   523.24     0  01:56           0        2.13       0.019
  YS02001605           JUNCTION      0.00   523.12     0  01:56           0        2.06       0.020
  YS02001607           JUNCTION      0.00   523.39     0  01:56           0        2.06       0.090
  YS02001610           JUNCTION      0.00   530.11     0  01:56           0        2.07       0.105
  YS02001613           JUNCTION      0.00   533.50     0  01:56           0         1.8       0.086
  YS02001616           JUNCTION      0.00   536.32     0  01:56           0         1.8       0.030
  YS02001619           JUNCTION    913.68   931.41     0  02:18        2.09        3.87      -0.001
  YS02001622           JUNCTION      0.00   933.42     0  01:56           0        3.85      -0.001
  YS02001625           JUNCTION      0.00  1023.48     0  02:04           0        3.87       0.331
  YS02001629           JUNCTION      0.00   941.67     0  01:56           0        3.42      -0.055
  YS02001633           JUNCTION    711.80  1387.12     0  01:58        1.34        4.72       0.071
  YS02001641           JUNCTION      0.00  1385.93     0  01:58           0         4.7       0.059
  YS02001644           JUNCTION    636.94  1821.56     0  01:59        1.16        5.85       0.059
  YS02001647           JUNCTION      0.00  1820.75     0  01:59           0        5.79       0.000
  YS02001649           JUNCTION      0.00  2075.76     0  01:58           0        6.84       0.009
  YS02001652           JUNCTION      0.00   787.94     0  02:02           0        1.05      -0.128
  YS02001655           JUNCTION      0.15   788.48     0  02:02     0.00443        1.05       0.094
  YS02001658           JUNCTION      0.00   787.04     0  02:02           0        1.04      -0.120
  YS02001661           JUNCTION      0.00   779.54     0  02:01           0        1.04       0.004
  YS02001664           JUNCTION    621.67   621.67     0  02:02        1.04        1.04      -0.005
  YS02001745           JUNCTION    406.19   511.23     0  02:01        0.64       0.641       0.263
  YS02001748           JUNCTION      0.04   594.95     0  02:01      0.0013       0.642      -0.445
  YS02001751           JUNCTION      0.01   539.85     0  02:01    0.000317       0.649       0.138
  YS02001754           JUNCTION      0.26   540.25     0  02:01     0.00749       0.662      -0.179
  YS02001757           JUNCTION      0.00  3352.70     0  02:02           0        9.74       0.024
  YS02001759           JUNCTION    562.03  1320.28     0  02:03       0.882        2.25      -0.007
  YS02001762           JUNCTION      0.00   781.18     0  02:03           0        1.36      -0.000
  YS02001765           JUNCTION      0.00   780.24     0  02:03           0        1.36       0.003
  YS02001767           JUNCTION      0.54   779.98     0  02:03      0.0154        1.36      -0.000
  YS02001770           JUNCTION    787.69   787.69     0  02:02        1.35        1.41      -0.014
  YS02001774           JUNCTION      0.00   409.08     0  01:59           0      0.0907       1.205
  YS02001779           JUNCTION      0.01   414.53     0  01:59    0.000144      0.0359      -1.174
  YS02001783           JUNCTION      0.00  1158.45     0  02:01           0        3.62       0.006
  YS02001784           JUNCTION      1.06  1159.25     0  02:01      0.0305        3.65       0.013
  YS02001786           JUNCTION      0.06  1159.23     0  02:01     0.00162        3.65       0.017
  YS02001788           JUNCTION      0.07  1159.47     0  02:00     0.00204        3.65       0.008
  YS02001790           JUNCTION      0.15  1170.98     0  02:01     0.00446        3.65       0.022
  YS02001791           JUNCTION      0.00  1279.43     0  02:04           0        3.65      -0.020
  YS02001793           JUNCTION      0.00  1241.67     0  02:00           0        3.65       0.004
  YS02001882           JUNCTION      0.00    67.28     0  01:57           0      0.0127       5.111
  YS02001884           JUNCTION      0.00    72.11     0  01:57           0      0.0482       5.418
  YS02001887           JUNCTION    610.63   610.92     0  02:01        0.93       0.963       0.449
  YS02001890           JUNCTION      0.00   611.09     0  02:01           0       0.923       0.548
  YS02001895           JUNCTION      0.00   516.40     0  02:03           0       0.898       0.172
  YS02001898           JUNCTION      0.00   516.52     0  02:04           0       0.896       0.033
  YS02001901           JUNCTION      0.00   516.63     0  02:04           0       0.899       0.357
  YS02001904           JUNCTION      0.00   516.23     0  02:04           0       0.903       0.297
  YS02001907           JUNCTION      0.00  1579.02     0  02:01           0        2.94       0.596
  YS02001910           JUNCTION      0.00  1073.64     0  02:00           0        2.04       0.340
  YS02001915           JUNCTION    691.83  1073.26     0  02:00        1.29        2.09       0.078
  YS02001918           JUNCTION      0.00   465.31     0  01:59           0       0.833       0.009
  YS02001920           JUNCTION      2.87   462.72     0  01:59      0.0827       0.815       0.125
  YS02001923           JUNCTION      0.04   462.71     0  01:59     0.00109       0.716      -0.134
  YS02001926           JUNCTION      0.05   694.86     0  01:59      0.0015       0.695      -0.074
  YS02001929           JUNCTION    332.17   552.83     0  01:59       0.677       0.681      -0.014
  YS02006553           JUNCTION      0.00   793.69     0  02:16           0        2.31       0.512
  YS02006556           JUNCTION      0.00   793.77     0  02:16           0        2.31       0.347
  YS02006558           JUNCTION    809.26  1177.81     0  01:59        1.36        3.65       0.098
  YS02006561           JUNCTION      0.00  1177.57     0  01:59           0        3.62      -0.003
  YS02163301           JUNCTION      0.00   931.18     0  02:19           0        3.42       0.042
  YS02163601           JUNCTION      0.11  1386.81     0  01:58     0.00317        4.69       0.103
  YS02164001           JUNCTION      0.00  1386.98     0  01:58           0        4.69       0.048
  YSB1154              JUNCTION    324.90   324.90     0  02:02       0.559        0.56       0.253
  YSB1171              JUNCTION      0.00   612.45     0  02:02           0       0.993       0.607
  YSB1174              JUNCTION    286.69   286.69     0  02:01       0.425       0.426       0.292
  YSB6556              JUNCTION      0.00   325.02     0  02:02           0       0.561       0.208
  CC-1                 OUTFALL       0.00   683.00     0  01:45           0        3.21       0.000
  CC-2                 OUTFALL       0.00   683.00     0  00:20           0        6.37       0.000
  JK-1                 OUTFALL       0.00  1000.00     0  00:05           0        2.94       0.000
  JK-2                 OUTFALL       0.00  1000.00     0  02:00           0        1.21       0.000
  WSC                  OUTFALL       0.00  1485.75     0  02:07           0        15.1       0.000
  CC-storage           STORAGE       0.00  3354.14     0  02:02           0          12      -3.982
  JK-storage           STORAGE       0.00  1279.62     0  02:00           0         3.8     -21.838
  XR-storage           STORAGE     200.00   200.00     0  00:00        5.76        6.36       0.001
  
  
  **********************
  Node Surcharge Summary
  **********************
  
  Surcharging occurs when water rises above the top of the highest conduit.
  ---------------------------------------------------------------------
                                               Max. Height   Min. Depth
                                   Hours       Above Crown    Below Rim
  Node                 Type      Surcharged         Meters       Meters
  ---------------------------------------------------------------------
  HS02004478           JUNCTION        0.38          0.645        0.295
  HS02004479           JUNCTION        0.51          0.891        0.159
  HS02004480           JUNCTION        0.55          0.958        0.142
  HS02004770           JUNCTION        0.46          0.720        0.000
  HS02004777           JUNCTION        0.46          0.780        0.000
  HS02004785           JUNCTION        0.41          0.790        0.000
  HS02004788           JUNCTION        0.40          0.720        0.000
  HS02004792           JUNCTION        0.51          0.900        0.000
  HS02004799           JUNCTION        0.63          1.060        0.000
  HS02004802           JUNCTION        0.55          1.080        0.130
  HS02004807           JUNCTION        0.54          1.220        0.000
  HS02004817           JUNCTION        1.13          1.730        0.010
  HS02004824           JUNCTION        0.40          1.310        0.000
  HS02004830           JUNCTION        0.37          1.330        0.000
  HS02004837           JUNCTION        0.33          1.340        0.000
  HS02004842           JUNCTION        0.46          1.520        0.000
  HS02004848           JUNCTION        0.30          1.331        0.039
  HS02004852           JUNCTION        0.33          1.373        0.047
  HS02004856           JUNCTION        0.30          1.300        0.000
  HS02004862           JUNCTION        0.34          1.300        0.000
  HS02004870           JUNCTION        0.35          1.294        0.106
  HS02004876           JUNCTION        0.41          1.377        0.183
  HS02004881           JUNCTION        0.38          1.450        0.000
  HS02004901           JUNCTION        0.47          0.720        0.000
  WS02004401           JUNCTION        1.52          0.809        0.851
  WS02004402           JUNCTION        1.54          0.753        0.987
  WS02004403           JUNCTION        1.54          0.682        1.348
  WS02004404           JUNCTION        1.63          0.699        2.081
  WS02004405           JUNCTION        1.61          0.644        2.156
  WS02004406           JUNCTION        1.60          0.574        1.876
  WS02004409           JUNCTION        0.86          0.366        1.994
  WS02004410           JUNCTION        0.83          0.276        2.264
  WS02004411           JUNCTION        0.75          0.187        2.343
  WS02004412           JUNCTION        0.66          0.093        2.217
  WS02004413           JUNCTION        1.21          0.138        2.062
  WS02006109           JUNCTION        2.03          1.820        0.000
  WS02006110           JUNCTION        1.76          1.464        0.386
  WS02006111           JUNCTION        1.13          0.876        0.994
  WS02006112           JUNCTION        1.84          1.680        0.000
  WS02006113           JUNCTION        1.17          0.996        0.934
  WS02006115           JUNCTION        1.44          0.886        1.364
  WS02006116           JUNCTION        1.46          0.831        1.459
  WS02006228           JUNCTION        2.02          2.200        0.000
  WS02006229           JUNCTION        0.81          1.056        0.014
  WS02006230           JUNCTION        1.63          1.570        0.000
  WS02006231           JUNCTION        1.67          1.515        0.015
  WS02006232           JUNCTION        1.95          1.480        0.000
  WS02006234           JUNCTION        1.73          1.240        0.000
  WS02006235           JUNCTION        1.78          1.290        0.000
  WS02006238           JUNCTION        1.82          1.301        0.129
  WS02006239           JUNCTION        1.73          1.166        0.124
  WS02006240           JUNCTION        1.69          1.022        0.368
  WS02006242           JUNCTION        1.82          0.820        0.000
  WS02006243           JUNCTION        1.62          0.770        0.000
  WS02006245           JUNCTION        1.58          0.850        0.000
  WS02006247           JUNCTION        1.61          0.736        0.024
  WS02006248           JUNCTION        1.54          0.380        0.000
  WS02006249           JUNCTION        1.57          0.390        0.000
  WS02006251           JUNCTION        1.41          1.180        0.000
  WS02006252           JUNCTION        1.81          1.100        0.000
  WS02006253           JUNCTION        1.43          2.480        0.000
  WS02006256           JUNCTION        5.45          2.050        0.000
  WS02006280           JUNCTION        0.65          0.709        0.071
  WS02006284           JUNCTION        0.57          0.657        0.143
  WS02006287           JUNCTION        0.48          0.723        0.167
  YS02001580           JUNCTION        0.47          0.450        0.000
  YS02001583           JUNCTION        0.48          0.500        0.000
  YS02001586           JUNCTION        0.60          0.510        0.000
  YS02001590           JUNCTION        0.67          0.750        0.000
  YS02001593           JUNCTION        0.68          0.720        0.120
  YS02001596           JUNCTION        0.80          0.954        0.116
  YS02001600           JUNCTION        1.00          1.190        0.000
  YS02001601           JUNCTION        1.52          1.440        0.000
  YS02001602           JUNCTION        1.44          1.270        0.000
  YS02001605           JUNCTION        1.41          1.180        0.000
  YS02001607           JUNCTION        0.63          0.657        0.023
  YS02001610           JUNCTION        0.66          0.680        0.000
  YS02001613           JUNCTION        0.62          0.687        0.013
  YS02001616           JUNCTION        0.57          0.610        0.000
  YS02001619           JUNCTION        0.55          0.610        0.000
  YS02001622           JUNCTION        0.54          0.586        0.034
  YS02001625           JUNCTION        0.81          0.780        0.000
  YS02001629           JUNCTION        0.45          0.470        0.000
  YS02001633           JUNCTION        1.24          1.005        0.055
  YS02001641           JUNCTION        1.24          0.958        0.142
  YS02001644           JUNCTION        1.23          0.920        0.000
  YS02001647           JUNCTION        0.32          0.812        0.088
  YS02001649           JUNCTION        0.83          1.050        0.000
  YS02001652           JUNCTION        0.23          1.130        0.000
  YS02001655           JUNCTION        0.15          1.151        0.049
  YS02001658           JUNCTION        0.07          1.300        0.000
  YS02001661           JUNCTION        0.01          0.544        0.846
  YS02001748           JUNCTION        0.01          1.190        0.000
  YS02001751           JUNCTION        0.10          1.082        0.118
  YS02001754           JUNCTION        0.15          1.102        0.048
  YS02001757           JUNCTION        1.22          1.128        0.082
  YS02001759           JUNCTION        0.74          1.081        0.129
  YS02001762           JUNCTION        0.62          1.078        0.072
  YS02001765           JUNCTION        0.44          1.026        0.074
  YS02001767           JUNCTION        0.24          0.993        0.037
  YS02001770           JUNCTION        0.22          0.920        0.000
  YS02001774           JUNCTION        0.56          1.002        0.048
  YS02001779           JUNCTION        0.17          0.680        0.000
  YS02001783           JUNCTION        0.45          0.657        0.943
  YS02001784           JUNCTION        0.42          0.450        1.040
  YS02001786           JUNCTION        0.33          0.188        1.242
  YS02001882           JUNCTION        0.39          0.788        0.042
  YS02001884           JUNCTION        0.40          0.800        0.070
  YS02001887           JUNCTION        0.44          0.828        0.122
  YS02001890           JUNCTION        0.45          0.760        0.000
  YS02001895           JUNCTION        0.39          0.567        0.183
  YS02001898           JUNCTION        0.38          0.540        0.200
  YS02001901           JUNCTION        0.43          0.680        0.190
  YS02001904           JUNCTION        0.42          0.646        0.204
  YS02001907           JUNCTION        0.65          0.950        0.000
  YS02001910           JUNCTION        0.48          0.967        0.133
  YS02001915           JUNCTION        0.39          0.918        0.082
  YS02001918           JUNCTION        0.31          0.810        0.000
  YS02001920           JUNCTION        0.33          1.140        0.000
  YS02001923           JUNCTION        0.01          0.820        0.000
  YS02001926           JUNCTION        0.02          0.900        0.000
  YS02001929           JUNCTION        0.01          0.780        0.000
  YS02006553           JUNCTION        0.66          1.027        0.163
  YS02006556           JUNCTION        0.56          1.034        0.316
  YS02006558           JUNCTION        0.55          1.029        0.371
  YS02006561           JUNCTION        0.28          0.361        0.789
  YS02163301           JUNCTION        1.20          0.925        0.105
  YS02163601           JUNCTION        1.30          1.048        0.032
  YS02164001           JUNCTION        1.23          0.963        0.137
  YSB1154              JUNCTION        0.75          1.276        0.124
  YSB1171              JUNCTION        0.76          1.100        0.000
  YSB1174              JUNCTION        0.67          1.111        0.139
  YSB6556              JUNCTION        0.61          1.100        0.000
  
  
  *********************
  Node Flooding Summary
  *********************
  
  Flooding refers to all water that overflows a node, whether it ponds or not.
  --------------------------------------------------------------------------
                                                             Total   Maximum
                                 Maximum   Time of Max       Flood    Ponded
                        Hours       Rate    Occurrence      Volume     Depth
  Node                 Flooded       LPS   days hr:min    10^6 ltr    Meters
  --------------------------------------------------------------------------
  HS02004770              0.27    661.75      0  02:02       0.356     0.000
  HS02004777              0.01     49.31      0  01:57       0.000     0.000
  HS02004785              0.01    144.52      0  01:57       0.000     0.000
  HS02004788              0.01    305.63      0  01:57       0.002     0.000
  HS02004792              0.27   1028.41      0  02:02       0.592     0.000
  HS02004799              0.11    140.59      0  02:01       0.029     0.000
  HS02004807              0.01     13.41      0  01:59       0.000     0.000
  HS02004824              0.01      9.45      0  01:59       0.000     0.000
  HS02004830              0.01      8.68      0  01:59       0.000     0.000
  HS02004837              0.01    178.19      0  01:58       0.000     0.000
  HS02004842              0.01     65.74      0  01:59       0.001     0.000
  HS02004856              0.01    321.75      0  01:59       0.003     0.000
  HS02004862              0.01    264.06      0  01:59       0.001     0.000
  HS02004881              0.01    263.31      0  01:59       0.000     0.000
  HS02004901              0.34    519.59      0  02:03       0.458     0.000
  WS02006109              0.32    231.18      0  02:02       0.160     0.000
  WS02006112              0.01   1153.65      0  00:00       0.035     0.000
  WS02006228              0.01      3.76      0  01:57       0.000     0.000
  WS02006230              0.58    559.04      0  02:02       0.742     0.000
  WS02006232              0.14      1.11      0  01:53       0.000     0.000
  WS02006234              0.62    128.57      0  02:01       0.179     0.000
  WS02006235              0.01      3.05      0  03:05       0.000     0.000
  WS02006242              0.70    137.29      0  02:15       0.301     0.000
  WS02006243              0.01    176.89      0  01:45       0.001     0.000
  WS02006245              0.01     73.01      0  01:45       0.000     0.000
  WS02006248              0.99    342.51      0  01:55       1.018     0.000
  WS02006249              1.39   1270.75      0  02:01       2.945     0.000
  WS02006251              0.01     47.26      0  01:59       0.000     0.000
  WS02006252              0.14    402.13      0  02:00       0.094     0.000
  WS02006253              0.01    118.11      0  01:59       0.000     0.000
  WS02006256              0.34    297.10      0  01:55       0.201     0.000
  YS02001580              0.01    112.00      0  01:56       0.001     0.000
  YS02001583              0.01    101.23      0  01:56       0.000     0.000
  YS02001586              0.36    196.95      0  02:04       0.141     0.000
  YS02001590              0.01     54.14      0  01:55       0.000     0.000
  YS02001600              0.01      1.39      0  01:56       0.000     0.000
  YS02001601              0.52    869.11      0  02:03       0.880     0.000
  YS02001602              0.36     61.92      0  02:10       0.070     0.000
  YS02001605              0.01      5.59      0  01:56       0.000     0.000
  YS02001610              0.30    408.79      0  02:05       0.292     0.000
  YS02001616              0.01     16.96      0  01:56       0.000     0.000
  YS02001619              0.01     11.78      0  01:56       0.000     0.000
  YS02001625              0.26   1023.44      0  02:04       0.462     0.000
  YS02001629              0.06    174.20      0  01:56       0.017     0.000
  YS02001644              0.06    435.22      0  02:02       0.049     0.000
  YS02001649              0.01     20.68      0  02:01       0.000     0.000
  YS02001652              0.01     59.49      0  02:01       0.000     0.000
  YS02001658              0.01    374.75      0  02:01       0.000     0.000
  YS02001748              0.01    256.90      0  02:01       0.000     0.000
  YS02001770              0.01     13.98      0  02:01       0.000     0.000
  YS02001779              0.04    366.57      0  01:59       0.009     0.000
  YS02001890              0.09    104.76      0  02:01       0.020     0.000
  YS02001907              0.26   1204.63      0  02:01       0.624     0.000
  YS02001918              0.01    261.69      0  02:00       0.003     0.000
  YS02001920              0.01     53.07      0  01:59       0.000     0.000
  YS02001923              0.01    377.04      0  01:59       0.002     0.000
  YS02001926              0.01    475.57      0  01:59       0.002     0.000
  YS02001929              0.01    157.23      0  01:59       0.000     0.000
  YSB1171                 0.18    598.04      0  02:03       0.230     0.000
  YSB6556                 0.01     15.53      0  01:57       0.000     0.000
  
  
  **********************
  Storage Volume Summary
  **********************
  
  ------------------------------------------------------------------------------------------------
                         Average    Avg   Evap  Exfil     Maximum    Max    Time of Max    Maximum
                          Volume   Pcnt   Pcnt   Pcnt      Volume   Pcnt     Occurrence    Outflow
  Storage Unit           1000 m   Full   Loss   Loss     1000 m   Full    days hr:min        LPS
  ------------------------------------------------------------------------------------------------
  CC-storage               2.234   34.9    0.0    0.0       5.473   85.4       0  03:05    1566.00
  JK-storage               0.004    1.5    0.0    0.0       0.151   51.7       0  00:05    2300.00
  XR-storage               0.948   65.8    0.0    0.0       1.111   77.1       0  08:00     190.00
  
  
  ***********************
  Outfall Loading Summary
  ***********************
  
  -----------------------------------------------------------
                         Flow       Avg       Max       Total
                         Freq      Flow      Flow      Volume
  Outfall Node           Pcnt       LPS       LPS    10^6 ltr
  -----------------------------------------------------------
  CC-1                  37.56    468.80    683.00       3.213
  CC-2                  56.21    487.17    683.00       6.365
  JK-1                  74.84    173.43   1000.00       2.944
  JK-2                  27.19    185.17   1000.00       1.211
  WSC                   99.99    623.58   1485.75      15.067
  -----------------------------------------------------------
  System                59.16   1938.15   4160.84      28.801
  
  
  ********************
  Link Flow Summary
  ********************
  
  -----------------------------------------------------------------------------
                                 Maximum  Time of Max   Maximum    Max/    Max/
                                  |Flow|   Occurrence   |Veloc|    Full    Full
  Link                 Type          LPS  days hr:min     m/sec    Flow   Depth
  -----------------------------------------------------------------------------
  1                    CONDUIT   1485.75     0  02:07      3.69    0.52    0.51
  HS02004478WS02006287 CONDUIT   2274.18     0  02:02      2.62    0.64    1.00
  HS02004479HS02004480 CONDUIT    511.58     0  01:59      0.73    0.49    1.00
  HS02004480HS02004478 CONDUIT   2135.15     0  01:57      3.05    8.99    1.00
  HS02004770HS02004777 CONDUIT    776.13     0  01:56      1.11    1.42    1.00
  HS02004777HS02004785 CONDUIT    780.69     0  01:56      1.17    0.96    1.00
  HS02004785HS02004788 CONDUIT    626.57     0  01:57      1.35    4.72    1.00
  HS02004788HS02004792 CONDUIT    818.18     0  02:17      1.44    0.54    1.00
  HS02004792HS02004799 CONDUIT   1579.55     0  01:58      2.26    0.97    1.00
  HS02004799HS02004480 CONDUIT   1755.92     0  01:57      2.51    2.22    1.00
  HS02004802HS02004478 CONDUIT    946.11     0  02:03      1.35    0.83    1.00
  HS02004807HS02004802 CONDUIT    946.16     0  02:03      1.35    1.81    1.00
  HS02004817HS02004807 CONDUIT    597.69     0  02:03      0.85    0.35    1.00
  HS02004817HS02004824 CONDUIT    597.00     0  02:03      0.85    0.27    1.00
  HS02004824HS02004830 CONDUIT    677.10     0  01:57      0.97    0.89    1.00
  HS02004830HS02004837 CONDUIT    694.91     0  01:57      1.09    0.69    1.00
  HS02004837HS02004842 CONDUIT    897.94     0  01:58      1.28    0.54    1.00
  HS02004842HS02004848 CONDUIT    896.60     0  01:58      1.45    0.52    1.00
  HS02004848HS02004852 CONDUIT   1112.29     0  01:59      1.65    1.25    1.00
  HS02004852HS02004856 CONDUIT   1124.68     0  01:59      1.61    1.29    1.00
  HS02004856HS02004862 CONDUIT   1174.95     0  01:59      1.72    1.17    1.00
  HS02004862HS02004870 CONDUIT   1271.70     0  01:59      1.96    1.37    1.00
  HS02004870HS02004876 CONDUIT   1279.14     0  01:59      1.98    0.85    1.00
  HS02004876HS02004881 CONDUIT   1406.84     0  02:00      2.51   14.96    1.00
  HS02004881HS02006253 CONDUIT   1503.75     0  02:00      2.76    0.29    1.00
  HS02004901HS02004770 CONDUIT    265.72     0  02:13      0.38    1.00    1.00
  WS02001211WS02001212 CONDUIT    208.13     0  02:40      0.54    0.16    0.69
  WS02001212WS02001213 CONDUIT    211.85     0  02:40      1.04    0.33    0.55
  WS02001213WS02003059 CONDUIT    215.99     0  02:40      0.47    0.36    0.89
  WS02003059WS02003060 CONDUIT    220.64     0  02:39      0.66    0.14    0.81
  WS02003060WS02003069 CONDUIT   1483.18     0  02:05      2.08    0.58    0.60
  WS02003066WSF200     CONDUIT   1280.90     0  02:02      3.25    0.22    0.38
  WS02003067WS02003066 CONDUIT   1280.92     0  02:02      1.98    0.41    0.56
  WS02003069WS02003072 CONDUIT   1483.42     0  02:05      1.88    0.71    0.66
  WS02003072WS02003073 CONDUIT   1483.58     0  02:06      2.04    3.20    0.61
  WS02004138WS02004139 CONDUIT    190.00     0  00:31      2.17    0.04    0.41
  WS02004139WS02001211 CONDUIT    199.64     0  01:53      0.55    0.25    0.60
  WS02004401WS02004402 CONDUIT   1280.58     0  02:02      2.07    1.54    1.00
  WS02004402WS02004403 CONDUIT   1280.60     0  02:02      1.84    1.84    1.00
  WS02004403WS02004404 CONDUIT   1281.19     0  02:02      1.68    0.93    1.00
  WS02004404WS02004405 CONDUIT   1281.36     0  02:02      1.86   12.55    1.00
  WS02004405WS02004406 CONDUIT   1281.00     0  02:02      1.80    2.53    1.00
  WS02004406WS02004407 CONDUIT   1280.72     0  02:02      1.74    0.57    0.95
  WS02004407WS02004409 CONDUIT   1280.80     0  02:02      1.84    0.45    0.95
  WS02004409WS02004410 CONDUIT   1280.98     0  02:02      1.63    1.66    1.00
  WS02004410WS02004411 CONDUIT   1281.10     0  02:02      1.63    1.75    1.00
  WS02004411WS02004412 CONDUIT   1280.89     0  02:02      1.63    1.82    1.00
  WS02004412WS02004413 CONDUIT   1280.80     0  02:02      1.63    0.86    1.00
  WS02004413WS02003067 CONDUIT   1280.77     0  02:02      1.99    0.55    0.76
  WS02006109WS02006110 CONDUIT   1306.78     0  00:00      3.15    2.51    1.00
  WS02006110WS02006113 CONDUIT   1121.55     0  02:16      2.23    1.02    1.00
  WS02006111WS02006112 CONDUIT   2307.30     0  00:00      9.18    1.10    1.00
  WS02006112WS02006115 CONDUIT   2152.75     0  00:00      2.85    1.27    1.00
  WS02006113WS02006111 CONDUIT   1176.04     0  00:00      2.66    1.41    1.00
  WS02006115WS02006116 CONDUIT   1280.53     0  02:02      1.81    1.64    1.00
  WS02006116WS02004401 CONDUIT   1280.64     0  02:02      2.21    1.77    1.00
  WS02006228WS02006109 CONDUIT   1273.31     0  02:02      2.53    5.56    1.00
  WS02006229WS02006228 CONDUIT   1273.42     0  02:02      2.53    4.22    1.00
  WS02006230WS02006229 CONDUIT   1001.57     0  02:02      2.60   22.29    1.00
  WS02006231WS02006230 CONDUIT    453.29     0  02:07      1.34    6.88    1.00
  WS02006232WS02006231 CONDUIT    453.44     0  02:07      1.18    0.95    1.00
  WS02006234WS02006232 CONDUIT    453.15     0  02:15      1.18    0.92    1.00
  WS02006235WS02006234 CONDUIT    416.76     0  03:11      1.08    4.40    1.00
  WS02006238WS02006235 CONDUIT    415.29     0  02:19      1.23    0.93    1.00
  WS02006239WS02006238 CONDUIT    414.90     0  02:19      1.08    1.33    1.00
  WS02006240WS02006239 CONDUIT    414.75     0  02:19      1.09    1.31    1.00
  WS02006242WS02006240 CONDUIT    414.85     0  02:15      1.08    1.65    1.00
  WS02006243WS02006242 CONDUIT    376.35     0  05:18      1.14    0.80    1.00
  WS02006245WS02006243 CONDUIT    381.08     0  04:19      1.21    1.13    1.00
  WS02006247WS02006245 CONDUIT    390.81     0  04:17      1.19    3.10    1.00
  WS02006248WS02006247 CONDUIT    393.53     0  04:17      1.22    0.86    1.00
  WS02006249WS02006248 CONDUIT    401.77     0  04:17      1.27    2.20    1.00
  WS02006251WS02006249 CONDUIT   1332.44     0  02:01      3.46    3.84    1.00
  WS02006252WS02006251 CONDUIT   1298.45     0  00:05     20.66    4.77    1.00
  WS02006253WS02006251 CONDUIT   1531.37     0  02:00      3.98    4.59    1.00
  WS02006256WS02006235 CONDUIT    219.33     0  01:43      3.10    2.32    1.00
  WS02006280WS02006229 CONDUIT   2274.85     0  02:02      4.38    0.49    1.00
  WS02006284WS02006280 CONDUIT   2274.59     0  02:02      3.02    0.95    1.00
  WS02006287WS02006284 CONDUIT   2274.21     0  02:02      2.90    1.05    1.00
  WSF200WS02003060     CONDUIT   1280.66     0  02:03      2.33    0.28    0.50
  YS02001580YS02001583 CONDUIT    125.33     0  01:56      0.72    0.49    1.00
  YS02001583YS02001586 CONDUIT    170.48     0  01:56      0.74    0.26    1.00
  YS02001586YS02001590 CONDUIT    318.02     0  02:07      1.26    0.56    1.00
  YS02001590YS02001593 CONDUIT    317.98     0  02:07      1.12    2.00    1.00
  YS02001593YS02001596 CONDUIT    317.99     0  02:12      1.64    0.50    1.00
  YS02001596YS02001600 CONDUIT    317.96     0  02:08      1.12    0.62    1.00
  YS02001600YS02001601 CONDUIT    318.09     0  02:07      1.13    0.55    1.00
  YS02001601YS02001602 CONDUIT    523.24     0  01:56      1.85    1.89    1.00
  YS02001602YS02001605 CONDUIT    523.12     0  01:56      1.85   11.07    1.00
  YS02001605YS02001607 CONDUIT    523.39     0  01:56      1.85    2.87    1.00
  YS02001607YS02001610 CONDUIT    530.11     0  01:56      0.67    0.50    1.00
  YS02001610YS02001613 CONDUIT    533.50     0  01:56      0.68    0.62    1.00
  YS02001613YS02001616 CONDUIT    536.32     0  01:56      0.69    0.46    1.00
  YS02001616YS02001619 CONDUIT    504.96     0  01:56      0.67    0.88    1.00
  YS02001619YS02001622 CONDUIT    933.42     0  01:56      1.19    1.38    1.00
  YS02001622YS02001625 CONDUIT    941.33     0  01:56      1.20    0.50    1.00
  YS02001625YS02001629 CONDUIT    941.67     0  01:56      1.20    0.45    1.00
  YS02001629YS02163301 CONDUIT    931.18     0  02:19      1.19    1.15    1.00
  YS02001633YS02163601 CONDUIT   1386.70     0  01:58      1.77    1.46    1.00
  YS02001641YS02001644 CONDUIT   1387.02     0  01:58      1.77    4.48    1.00
  YS02001644YS02001647 CONDUIT   1820.75     0  01:59      2.32    1.07    1.00
  YS02001647YS02001649 CONDUIT   1835.84     0  01:58      2.34    0.97    1.00
  YS02001649YS02001757 CONDUIT   2064.39     0  01:59      2.63    1.25    1.00
  YS02001652YS02001649 CONDUIT    788.02     0  02:02      1.00    0.39    1.00
  YS02001655YS02001652 CONDUIT    787.94     0  02:02      1.30    0.38    1.00
  YS02001658YS02001655 CONDUIT    788.32     0  02:02      1.90    0.33    1.00
  YS02001661YS02001658 CONDUIT    787.04     0  02:02      2.37    0.31    1.00
  YS02001664YS02001661 CONDUIT    779.54     0  02:01      2.39    0.24    0.80
  YS02001745YS02001748 CONDUIT    594.90     0  02:01      2.27    0.23    0.95
  YS02001748YS02001751 CONDUIT    539.84     0  02:01      1.74    0.27    1.00
  YS02001751YS02001754 CONDUIT    539.99     0  02:01      1.38    0.26    1.00
  YS02001754YS02001757 CONDUIT    540.57     0  02:01      0.69    0.22    1.00
  YS02001757CaochengTiaoxuchi CONDUIT   3354.14     0  02:02      6.86    1.45    1.00
  YS02001759YS02001757 CONDUIT   1320.67     0  02:03      1.68    0.94    1.00
  YS02001762YS02001759 CONDUIT    781.85     0  02:03      1.00    0.90    1.00
  YS02001765YS02001762 CONDUIT    781.18     0  02:03      0.99    0.73    1.00
  YS02001767YS02001765 CONDUIT    780.24     0  02:03      0.99    0.98    1.00
  YS02001770YS02001767 CONDUIT    779.44     0  02:03      0.99    3.09    1.00
  YS02001774YS02001770 CONDUIT    409.08     0  01:59      0.52    0.26    1.00
  YS02001779YS02001774 CONDUIT    414.52     0  01:59      0.53    0.21    1.00
  YS02001783YS02001784 CONDUIT   1158.19     0  02:01      2.30    1.60    1.00
  YS02001784YS02001785 CONDUIT   1159.18     0  02:01      2.31    2.70    1.00
  YS02001786YS02001788 CONDUIT   1159.40     0  02:00      2.48    2.23    0.89
  YS02001788YS02001790 CONDUIT   1170.82     0  02:01      2.72    0.86    0.83
  YS02001790YS02001791 CONDUIT   1279.43     0  02:04      3.42    1.39    0.70
  YS02001791YS02001793 CONDUIT   1241.67     0  02:00      6.76    0.53    0.43
  YS02001793JiankangQianchi CONDUIT   1279.62     0  02:00     24.32    0.10    0.61
  YS02001882YS02001884 CONDUIT     67.28     0  01:57      0.12    0.08    1.00
  YS02001884YS02001887 CONDUIT     72.11     0  01:57      0.09    0.10    1.00
  YS02001887YS02001890 CONDUIT    611.09     0  02:01      0.78    1.05    1.00
  YS02001890YS02001895 CONDUIT    516.40     0  02:03      0.66    0.24    1.00
  YS02001895YS02001898 CONDUIT    516.52     0  02:04      0.66    0.90    1.00
  YS02001898YS02001901 CONDUIT    516.63     0  02:04      0.66    0.33    1.00
  YS02001901YS02001904 CONDUIT    516.23     0  02:04      0.66    0.80    1.00
  YS02001904YS02001907 CONDUIT    516.33     0  02:03      0.66    0.18    1.00
  YS02001907YS02006553 CONDUIT    793.69     0  02:16      0.88    0.93    1.00
  YS02001910YS02001907 CONDUIT   1073.47     0  02:00      1.37    0.61    1.00
  YS02001915YS02001910 CONDUIT   1073.64     0  02:00      1.37    0.53    1.00
  YS02001918YS02001915 CONDUIT    465.31     0  01:59      0.59    0.26    1.00
  YS02001920YS02001918 CONDUIT    459.85     0  01:59      0.64    0.44    1.00
  YS02001923YS02001920 CONDUIT    462.68     0  01:59      0.70    0.21    1.00
  YS02001926YS02001923 CONDUIT    434.71     0  01:59      0.97    0.62    1.00
  YS02001929YS02001926 CONDUIT    399.38     0  02:00      1.15    0.19    1.00
  YS02006553YS02006556 CONDUIT    793.77     0  02:16      1.01    0.68    1.00
  YS02006556YS02006558 CONDUIT    794.03     0  02:16      1.01    0.63    1.00
  YS02006558YS02006561 CONDUIT   1177.57     0  01:59      4.16    2.60    1.00
  YS02006561YS02001783 CONDUIT   1158.45     0  02:01      2.30    0.60    1.00
  YS02163301YS02001633 CONDUIT    931.90     0  02:19      1.19    0.88    1.00
  YS02163601YS02164001 CONDUIT   1386.98     0  01:58      1.77    1.23    1.00
  YS02164001YS02001641 CONDUIT   1385.93     0  01:58      1.76    1.89    1.00
  YSB1154YSB6556       CONDUIT    325.02     0  02:02      0.84    0.58    1.00
  YSB1171HS02004479    CONDUIT    510.91     0  01:59      1.02    0.34    1.00
  YSB1174YSB1171       CONDUIT    286.94     0  02:01      0.75    0.44    1.00
  YSB6556YSB1171       CONDUIT    325.69     0  02:02      0.85    0.34    1.00
  CC-R1                PUMP       683.00     0  01:45              1.00
  CC-R2                PUMP       683.00     0  00:20              1.00
  CC-S1                PUMP       200.00     0  00:05              1.00
  CC-S2                PUMP       200.00     0  01:45              1.00
  JK-R1                PUMP      1000.00     0  00:05              1.00
  JK-R2                PUMP      1000.00     0  02:00              1.00
  JK-S                 PUMP       300.00     0  01:35              1.00
  XR-1                 PUMP        95.00     0  00:10              1.00
  XR-2                 PUMP        95.00     0  00:29              1.00
  XR-3                 PUMP         0.00     0  00:00              0.00
  XR-4                 PUMP         0.00     0  00:00              0.00
  
  
  ***************************
  Flow Classification Summary
  ***************************
  
  -------------------------------------------------------------------------------------
                      Adjusted    ---------- Fraction of Time in Flow Class ---------- 
                       /Actual         Up    Down  Sub   Sup   Up    Down  Norm  Inlet 
  Conduit               Length    Dry  Dry   Dry   Crit  Crit  Crit  Crit  Ltd   Ctrl  
  -------------------------------------------------------------------------------------
  1                       1.00   0.00  0.00  0.00  0.00  1.00  0.00  0.00  0.50  0.00
  HS02004478WS02006287    1.00   0.16  0.00  0.00  0.66  0.18  0.00  0.00  0.60  0.00
  HS02004479HS02004480    1.00   0.04  0.00  0.00  0.96  0.00  0.00  0.00  0.11  0.00
  HS02004480HS02004478    1.00   0.13  0.00  0.00  0.61  0.00  0.00  0.26  0.00  0.00
  HS02004770HS02004777    1.00   0.00  0.13  0.00  0.87  0.00  0.00  0.00  0.03  0.00
  HS02004777HS02004785    1.00   0.00  0.00  0.00  1.00  0.00  0.00  0.00  0.12  0.00
  HS02004785HS02004788    1.00   0.00  0.00  0.00  1.00  0.00  0.00  0.00  0.00  0.00
  HS02004788HS02004792    1.00   0.00  0.00  0.00  0.99  0.01  0.00  0.00  0.91  0.00
  HS02004792HS02004799    1.00   0.00  0.00  0.00  0.99  0.01  0.00  0.00  0.87  0.00
  HS02004799HS02004480    1.00   0.00  0.03  0.00  0.84  0.00  0.12  0.00  0.00  0.00
  HS02004802HS02004478    1.00   0.13  0.01  0.00  0.86  0.00  0.00  0.00  0.03  0.00
  HS02004807HS02004802    1.00   0.13  0.00  0.00  0.85  0.00  0.00  0.02  0.00  0.00
  HS02004817HS02004807    1.00   0.00  0.13  0.00  0.87  0.00  0.00  0.00  0.01  0.00
  HS02004817HS02004824    1.00   0.00  0.00  0.00  1.00  0.00  0.00  0.00  0.82  0.00
  HS02004824HS02004830    1.00   0.00  0.00  0.00  1.00  0.00  0.00  0.00  0.01  0.00
  HS02004830HS02004837    1.00   0.00  0.00  0.00  1.00  0.00  0.00  0.00  0.90  0.00
  HS02004837HS02004842    1.00   0.00  0.00  0.00  0.99  0.01  0.00  0.00  0.11  0.00
  HS02004842HS02004848    1.00   0.00  0.13  0.00  0.87  0.00  0.00  0.00  0.56  0.00
  HS02004848HS02004852    1.00   0.13  0.00  0.00  0.87  0.00  0.00  0.00  0.71  0.00
  HS02004852HS02004856    1.00   0.13  0.01  0.00  0.86  0.00  0.00  0.00  0.68  0.00
  HS02004856HS02004862    1.00   0.00  0.17  0.00  0.83  0.00  0.00  0.00  0.75  0.00
  HS02004862HS02004870    1.00   0.00  0.00  0.00  1.00  0.00  0.00  0.00  0.04  0.00
  HS02004870HS02004876    1.00   0.00  0.00  0.00  1.00  0.00  0.00  0.00  0.87  0.00
  HS02004876HS02004881    1.00   0.01  0.00  0.00  0.85  0.15  0.00  0.00  0.00  0.00
  HS02004881HS02006253    1.00   0.02  0.03  0.00  0.44  0.00  0.00  0.51  0.38  0.00
  HS02004901HS02004770    1.00   0.13  0.00  0.00  0.87  0.00  0.00  0.00  0.00  0.00
  WS02001211WS02001212    1.00   0.00  0.02  0.00  0.98  0.00  0.00  0.00  0.00  0.00
  WS02001212WS02001213    1.00   0.02  0.00  0.00  0.46  0.00  0.51  0.00  0.00  0.00
  WS02001213WS02003059    1.00   0.00  0.01  0.00  0.99  0.00  0.00  0.00  0.00  0.00
  WS02003059WS02003060    1.00   0.00  0.00  0.00  1.00  0.00  0.00  0.00  0.03  0.00
  WS02003060WS02003069    1.00   0.00  0.00  0.00  0.97  0.03  0.00  0.00  0.42  0.00
  WS02003066WSF200        1.00   0.06  0.00  0.00  0.00  0.94  0.00  0.00  0.69  0.00
  WS02003067WS02003066    1.00   0.05  0.01  0.00  0.94  0.00  0.00  0.00  0.00  0.00
  WS02003069WS02003072    1.00   0.00  0.00  0.00  0.99  0.01  0.00  0.00  0.47  0.00
  WS02003072WS02003073    1.00   0.00  0.00  0.00  0.00  0.00  0.00  1.00  0.00  0.00
  WS02004138WS02004139    1.00   0.02  0.00  0.00  0.97  0.01  0.00  0.00  0.98  0.00
  WS02004139WS02001211    1.00   0.00  0.01  0.00  0.99  0.00  0.00  0.00  0.00  0.00
  WS02004401WS02004402    1.00   0.00  0.00  0.00  1.00  0.00  0.00  0.00  0.00  0.00
  WS02004402WS02004403    1.00   0.00  0.00  0.00  1.00  0.00  0.00  0.00  0.00  0.00
  WS02004403WS02004404    1.00   0.00  0.00  0.00  1.00  0.00  0.00  0.00  0.00  0.00
  WS02004404WS02004405    1.00   0.00  0.00  0.00  1.00  0.00  0.00  0.00  0.00  0.00
  WS02004405WS02004406    1.00   0.00  0.00  0.00  1.00  0.00  0.00  0.00  0.00  0.00
  WS02004406WS02004407    1.00   0.00  0.01  0.00  0.99  0.00  0.00  0.00  0.01  0.00
  WS02004407WS02004409    1.00   0.01  0.00  0.00  0.98  0.01  0.00  0.00  0.88  0.00
  WS02004409WS02004410    1.00   0.01  0.00  0.00  0.99  0.00  0.00  0.00  0.00  0.00
  WS02004410WS02004411    1.00   0.01  0.00  0.00  0.99  0.00  0.00  0.00  0.01  0.00
  WS02004411WS02004412    1.00   0.01  0.00  0.00  0.99  0.00  0.00  0.00  0.00  0.00
  WS02004412WS02004413    1.00   0.01  0.00  0.00  0.99  0.00  0.00  0.00  0.02  0.00
  WS02004413WS02003067    1.00   0.01  0.04  0.00  0.00  0.00  0.95  0.00  0.00  0.00
  WS02006109WS02006110    1.00   0.00  0.00  0.00  1.00  0.00  0.00  0.00  0.00  0.00
  WS02006110WS02006113    1.00   0.00  0.00  0.00  1.00  0.00  0.00  0.00  0.00  0.00
  WS02006111WS02006112    1.00   0.00  0.00  0.00  1.00  0.00  0.00  0.00  0.80  0.00
  WS02006112WS02006115    1.00   0.00  0.00  0.00  1.00  0.00  0.00  0.00  0.00  0.00
  WS02006113WS02006111    1.00   0.00  0.00  0.00  0.19  0.81  0.00  0.00  0.10  0.00
  WS02006115WS02006116    1.00   0.00  0.00  0.00  1.00  0.00  0.00  0.00  0.00  0.00
  WS02006116WS02004401    1.00   0.00  0.00  0.00  1.00  0.00  0.00  0.00  0.00  0.00
  WS02006228WS02006109    1.00   0.00  0.00  0.00  1.00  0.00  0.00  0.00  0.00  0.00
  WS02006229WS02006228    1.00   0.00  0.00  0.00  1.00  0.00  0.00  0.00  0.00  0.00
  WS02006230WS02006229    1.00   0.00  0.00  0.00  1.00  0.00  0.00  0.00  0.00  0.00
  WS02006231WS02006230    1.00   0.00  0.00  0.00  0.34  0.00  0.65  0.00  0.00  0.00
  WS02006232WS02006231    1.00   0.00  0.00  0.00  0.99  0.00  0.00  0.00  0.01  0.00
  WS02006234WS02006232    1.00   0.00  0.01  0.00  0.99  0.00  0.00  0.00  0.20  0.00
  WS02006235WS02006234    1.00   0.02  0.00  0.00  0.69  0.00  0.28  0.00  0.00  0.00
  WS02006238WS02006235    1.00   0.02  0.00  0.00  0.98  0.00  0.00  0.00  0.00  0.00
  WS02006239WS02006238    1.00   0.02  0.00  0.00  0.98  0.00  0.00  0.00  0.26  0.00
  WS02006240WS02006239    1.00   0.02  0.00  0.00  0.60  0.00  0.00  0.38  0.01  0.00
  WS02006242WS02006240    1.00   0.01  0.00  0.00  0.98  0.00  0.01  0.00  0.00  0.00
  WS02006243WS02006242    1.00   0.01  0.00  0.00  0.98  0.00  0.00  0.01  0.45  0.00
  WS02006245WS02006243    1.00   0.01  0.00  0.00  0.92  0.00  0.00  0.07  0.00  0.00
  WS02006247WS02006245    1.00   0.01  0.00  0.00  0.98  0.00  0.00  0.01  0.00  0.00
  WS02006248WS02006247    1.00   0.01  0.00  0.00  0.99  0.00  0.00  0.00  0.42  0.00
  WS02006249WS02006248    1.00   0.00  0.01  0.00  0.54  0.00  0.45  0.00  0.00  0.00
  WS02006251WS02006249    1.00   0.00  0.00  0.00  1.00  0.00  0.00  0.00  0.45  0.00
  WS02006252WS02006251    1.00   0.01  0.19  0.00  0.18  0.00  0.62  0.00  0.00  0.00
  WS02006253WS02006251    1.00   0.01  0.00  0.00  0.97  0.00  0.02  0.00  0.00  0.00
  WS02006256WS02006235    1.00   0.02  0.00  0.00  0.98  0.00  0.00  0.00  0.00  0.00
  WS02006280WS02006229    1.00   0.14  0.00  0.00  0.13  0.04  0.00  0.68  0.01  0.00
  WS02006284WS02006280    1.00   0.14  0.00  0.00  0.09  0.01  0.00  0.76  0.00  0.00
  WS02006287WS02006284    1.00   0.10  0.06  0.00  0.56  0.27  0.00  0.00  0.66  0.00
  WSF200WS02003060        1.00   0.00  0.06  0.00  0.66  0.28  0.00  0.00  0.48  0.00
  YS02001580YS02001583    1.00   0.24  0.58  0.00  0.18  0.00  0.00  0.00  0.68  0.00
  YS02001583YS02001586    1.00   0.42  0.34  0.00  0.23  0.00  0.00  0.00  0.68  0.00
  YS02001586YS02001590    1.00   0.13  0.00  0.00  0.42  0.04  0.00  0.42  0.37  0.00
  YS02001590YS02001593    1.00   0.13  0.01  0.00  0.10  0.00  0.77  0.00  0.00  0.00
  YS02001593YS02001596    1.00   0.14  0.00  0.00  0.13  0.02  0.00  0.72  0.04  0.00
  YS02001596YS02001600    1.00   0.14  0.00  0.00  0.21  0.01  0.00  0.64  0.04  0.00
  YS02001600YS02001601    1.00   0.13  0.01  0.00  0.86  0.00  0.00  0.00  0.60  0.00
  YS02001601YS02001602    1.00   0.13  0.01  0.00  0.86  0.00  0.00  0.00  0.00  0.00
  YS02001602YS02001605    1.00   0.14  0.00  0.00  0.86  0.00  0.00  0.00  0.00  0.00
  YS02001605YS02001607    1.00   0.14  0.00  0.00  0.86  0.00  0.00  0.00  0.00  0.00
  YS02001607YS02001610    1.00   0.13  0.01  0.00  0.86  0.00  0.00  0.00  0.02  0.00
  YS02001610YS02001613    1.00   0.13  0.00  0.00  0.87  0.00  0.00  0.00  0.01  0.00
  YS02001613YS02001616    1.00   0.13  0.00  0.00  0.87  0.00  0.00  0.00  0.00  0.00
  YS02001616YS02001619    1.00   0.13  0.00  0.00  0.87  0.00  0.00  0.00  0.00  0.00
  YS02001619YS02001622    1.00   0.13  0.00  0.00  0.87  0.00  0.00  0.00  0.29  0.00
  YS02001622YS02001625    1.00   0.13  0.00  0.00  0.87  0.00  0.00  0.00  0.05  0.00
  YS02001625YS02001629    1.00   0.13  0.05  0.00  0.22  0.00  0.60  0.00  0.00  0.00
  YS02001629YS02163301    1.00   0.16  0.01  0.00  0.83  0.00  0.00  0.00  0.00  0.00
  YS02001633YS02163601    1.00   0.00  0.01  0.00  0.99  0.00  0.00  0.00  0.15  0.00
  YS02001641YS02001644    1.00   0.00  0.01  0.00  0.99  0.00  0.00  0.00  0.00  0.00
  YS02001644YS02001647    1.00   0.00  0.17  0.00  0.83  0.00  0.00  0.00  0.00  0.00
  YS02001647YS02001649    1.00   0.00  0.17  0.00  0.70  0.12  0.00  0.00  0.53  0.00
  YS02001649YS02001757    1.00   0.00  0.00  0.00  0.89  0.11  0.00  0.00  0.56  0.00
  YS02001652YS02001649    1.00   0.00  0.00  0.00  0.96  0.04  0.00  0.00  0.65  0.00
  YS02001655YS02001652    1.00   0.00  0.00  0.00  0.29  0.01  0.00  0.70  0.06  0.00
  YS02001658YS02001655    1.00   0.00  0.14  0.00  0.72  0.13  0.00  0.00  0.63  0.00
  YS02001661YS02001658    1.00   0.14  0.00  0.00  0.53  0.33  0.00  0.00  0.73  0.00
  YS02001664YS02001661    1.00   0.13  0.00  0.00  0.74  0.13  0.00  0.00  0.86  0.00
  YS02001745YS02001748    1.00   0.00  0.00  0.00  0.12  0.03  0.00  0.85  0.13  0.00
  YS02001748YS02001751    1.00   0.00  0.00  0.00  0.89  0.11  0.00  0.00  0.69  0.00
  YS02001751YS02001754    1.00   0.00  0.00  0.00  0.26  0.01  0.00  0.72  0.04  0.00
  YS02001754YS02001757    1.00   0.00  0.00  0.00  1.00  0.00  0.00  0.00  0.71  0.00
  YS02001757CaochengTiaoxuchi    1.00   0.00  0.00  0.00  0.53  0.47  0.00  0.00  0.25  0.00
  YS02001759YS02001757    1.00   0.00  0.00  0.00  1.00  0.00  0.00  0.00  0.61  0.00
  YS02001762YS02001759    1.00   0.00  0.00  0.00  1.00  0.00  0.00  0.00  0.04  0.00
  YS02001765YS02001762    1.00   0.00  0.00  0.00  1.00  0.00  0.00  0.00  0.62  0.00
  YS02001767YS02001765    1.00   0.00  0.00  0.00  1.00  0.00  0.00  0.00  0.00  0.00
  YS02001770YS02001767    1.00   0.00  0.00  0.00  1.00  0.00  0.00  0.00  0.00  0.00
  YS02001774YS02001770    1.00   0.00  0.13  0.00  0.70  0.00  0.17  0.00  0.03  0.00
  YS02001779YS02001774    1.00   0.00  0.00  0.00  1.00  0.00  0.00  0.00  0.69  0.00
  YS02001783YS02001784    1.00   0.00  0.18  0.00  0.82  0.00  0.00  0.00  0.56  0.00
  YS02001784YS02001785    1.00   0.00  0.00  0.00  1.00  0.00  0.00  0.00  0.17  0.00
  YS02001786YS02001788    1.00   0.00  0.00  0.00  0.79  0.21  0.00  0.00  0.00  0.00
  YS02001788YS02001790    1.00   0.00  0.00  0.00  0.21  0.79  0.00  0.00  0.81  0.00
  YS02001790YS02001791    1.00   0.00  0.00  0.00  0.01  0.99  0.00  0.00  0.16  0.00
  YS02001791YS02001793    1.00   0.00  0.00  0.00  0.00  1.00  0.00  0.00  0.01  0.00
  YS02001793JiankangQianchi    1.00   0.00  0.00  0.00  0.28  0.72  0.00  0.00  0.34  0.00
  YS02001882YS02001884    1.00   0.15  0.01  0.00  0.84  0.00  0.00  0.00  0.00  0.00
  YS02001884YS02001887    1.00   0.06  0.05  0.00  0.89  0.00  0.00  0.00  0.00  0.00
  YS02001887YS02001890    1.00   0.00  0.00  0.00  0.97  0.00  0.03  0.00  0.00  0.00
  YS02001890YS02001895    1.00   0.00  0.16  0.00  0.83  0.00  0.00  0.00  0.00  0.00
  YS02001895YS02001898    1.00   0.17  0.00  0.00  0.81  0.00  0.02  0.00  0.00  0.00
  YS02001898YS02001901    1.00   0.17  0.00  0.00  0.83  0.00  0.00  0.00  0.01  0.00
  YS02001901YS02001904    1.00   0.17  0.00  0.00  0.83  0.00  0.00  0.00  0.00  0.00
  YS02001904YS02001907    1.00   0.00  0.17  0.00  0.83  0.00  0.00  0.00  0.00  0.00
  YS02001907YS02006553    1.00   0.00  0.02  0.00  0.98  0.00  0.00  0.00  0.00  0.00
  YS02001910YS02001907    1.00   0.00  0.00  0.00  0.97  0.00  0.00  0.03  0.12  0.00
  YS02001915YS02001910    1.00   0.00  0.00  0.00  0.96  0.04  0.00  0.00  0.16  0.00
  YS02001918YS02001915    1.00   0.00  0.00  0.00  0.98  0.02  0.00  0.00  0.77  0.00
  YS02001920YS02001918    1.00   0.00  0.00  0.00  1.00  0.00  0.00  0.00  0.01  0.00
  YS02001923YS02001920    1.00   0.00  0.00  0.00  1.00  0.00  0.00  0.00  0.94  0.00
  YS02001926YS02001923    1.00   0.00  0.07  0.00  0.05  0.00  0.88  0.00  0.00  0.00
  YS02001929YS02001926    1.00   0.00  0.13  0.00  0.87  0.00  0.00  0.00  0.83  0.00
  YS02006553YS02006556    1.00   0.01  0.00  0.00  0.99  0.00  0.00  0.00  0.03  0.00
  YS02006556YS02006558    1.00   0.00  0.00  0.00  1.00  0.00  0.00  0.00  0.00  0.00
  YS02006558YS02006561    1.00   0.18  0.00  0.00  0.05  0.77  0.00  0.00  0.19  0.00
  YS02006561YS02001783    1.00   0.18  0.00  0.00  0.08  0.74  0.00  0.00  0.70  0.00
  YS02163301YS02001633    1.00   0.00  0.15  0.00  0.85  0.00  0.00  0.00  0.00  0.00
  YS02163601YS02164001    1.00   0.00  0.08  0.00  0.92  0.00  0.00  0.00  0.00  0.00
  YS02164001YS02001641    1.00   0.01  0.07  0.00  0.92  0.00  0.00  0.00  0.05  0.00
  YSB1154YSB6556          1.00   0.12  0.00  0.00  0.88  0.00  0.00  0.00  0.02  0.00
  YSB1171HS02004479       1.00   0.04  0.00  0.00  0.95  0.00  0.00  0.01  0.10  0.00
  YSB1174YSB1171          1.00   0.05  0.04  0.00  0.91  0.00  0.00  0.00  0.00  0.00
  YSB6556YSB1171          1.00   0.04  0.08  0.00  0.88  0.00  0.00  0.00  0.00  0.00
  
  
  *************************
  Conduit Surcharge Summary
  *************************
  
  ----------------------------------------------------------------------------
                                                           Hours        Hours 
                         --------- Hours Full --------   Above Full   Capacity
  Conduit                Both Ends  Upstream  Dnstream   Normal Flow   Limited
  ----------------------------------------------------------------------------
  HS02004478WS02006287        0.38      0.38      0.55      0.01         0.01
  HS02004479HS02004480        0.55      0.55      0.57      0.01         0.01
  HS02004480HS02004478        0.49      0.55      0.49      1.61         0.49
  HS02004770HS02004777        0.46      0.46      0.46      0.10         0.07
  HS02004777HS02004785        0.41      0.41      0.46      0.01         0.01
  HS02004785HS02004788        0.40      0.41      0.40      1.37         0.39
  HS02004788HS02004792        0.40      0.40      0.51      0.01         0.01
  HS02004792HS02004799        0.51      0.51      0.63      0.01         0.01
  HS02004799HS02004480        0.55      0.55      0.63      0.73         0.01
  HS02004802HS02004478        0.50      0.50      0.56      0.01         0.01
  HS02004807HS02004802        0.54      0.54      0.55      0.15         0.15
  HS02004817HS02004807        0.54      0.54      1.13      0.01         0.01
  HS02004817HS02004824        0.40      0.40      1.13      0.01         0.01
  HS02004824HS02004830        0.37      0.37      0.40      0.01         0.01
  HS02004830HS02004837        0.33      0.33      0.37      0.01         0.01
  HS02004837HS02004842        0.33      0.33      0.46      0.01         0.01
  HS02004842HS02004848        0.30      0.30      0.46      0.01         0.01
  HS02004848HS02004852        0.30      0.30      0.33      0.03         0.01
  HS02004852HS02004856        0.33      0.33      0.35      0.02         0.01
  HS02004856HS02004862        0.30      0.30      0.34      0.01         0.01
  HS02004862HS02004870        0.34      0.34      0.35      0.03         0.04
  HS02004870HS02004876        0.35      0.35      0.41      0.01         0.01
  HS02004876HS02004881        0.38      0.41      0.38      1.39         0.38
  HS02004881HS02006253        0.38      0.38      1.43      0.01         0.01
  HS02004901HS02004770        0.46      0.46      0.47      0.01         0.01
  WS02003072WS02003073        0.01      0.01      0.01      3.67         0.01
  WS02004401WS02004402        1.52      1.52      1.54      1.30         1.32
  WS02004402WS02004403        1.54      1.54      1.54      1.51         1.50
  WS02004403WS02004404        1.54      1.54      1.63      0.01         0.01
  WS02004404WS02004405        1.61      1.63      1.61      4.45         1.61
  WS02004405WS02004406        1.60      1.61      1.60      1.78         1.60
  WS02004406WS02004407        0.01      0.01      1.60      0.01         0.01
  WS02004407WS02004409        0.01      0.01      0.86      0.01         0.01
  WS02004409WS02004410        0.83      0.86      0.83      1.42         0.83
  WS02004410WS02004411        0.75      0.83      0.75      1.48         0.75
  WS02004411WS02004412        0.66      0.75      0.66      1.51         0.66
  WS02004412WS02004413        0.66      0.66      1.21      0.01         0.01
  WS02004413WS02003067        0.01      0.01      1.21      0.01         0.01
  WS02006109WS02006110        1.75      1.76      2.20      1.76         0.01
  WS02006110WS02006113        1.16      1.16      2.13      0.28         0.01
  WS02006111WS02006112        1.13      1.13      3.02      0.01         0.01
  WS02006112WS02006115        1.44      1.44      1.83      0.01         0.01
  WS02006113WS02006111        1.15      1.16      1.15      1.29         1.15
  WS02006115WS02006116        1.46      1.46      1.46      1.43         1.41
  WS02006116WS02004401        1.51      1.51      1.52      1.49         1.48
  WS02006228WS02006109        2.03      2.20      2.03      3.73         2.03
  WS02006229WS02006228        2.02      2.06      2.02      2.83         2.02
  WS02006230WS02006229        2.37      2.61      2.37      4.37         1.43
  WS02006231WS02006230        1.63      1.63      1.69      4.06         0.88
  WS02006232WS02006231        1.67      1.67      1.95      0.01         0.10
  WS02006234WS02006232        1.76      1.76      1.95      0.01         0.01
  WS02006235WS02006234        1.73      1.73      1.78      3.87         0.86
  WS02006238WS02006235        1.79      1.79      1.89      0.01         0.25
  WS02006239WS02006238        1.80      1.83      1.82      0.96         0.03
  WS02006240WS02006239        1.70      1.70      1.73      0.95         0.01
  WS02006242WS02006240        1.69      1.69      1.90      1.65         0.71
  WS02006243WS02006242        1.64      1.64      1.82      0.01         0.01
  WS02006245WS02006243        1.59      1.60      1.62      0.28         0.01
  WS02006247WS02006245        1.58      1.63      1.58      3.59         0.58
  WS02006248WS02006247        1.55      1.55      1.61      0.01         0.01
  WS02006249WS02006248        1.54      1.54      1.57      2.62         0.01
  WS02006251WS02006249        1.55      1.56      1.57      1.36         1.07
  WS02006252WS02006251        1.75      1.75      1.80      0.34         0.01
  WS02006253WS02006251        1.55      1.55      1.59      0.67         0.01
  WS02006256WS02006235        4.18      4.19      5.44      0.38         0.01
  WS02006280WS02006229        0.66      0.66      0.81      0.01         0.01
  WS02006284WS02006280        0.57      0.57      0.65      0.01         0.01
  WS02006287WS02006284        0.48      0.48      0.58      0.20         0.20
  YS02001580YS02001583        0.47      0.47      0.52      0.01         0.01
  YS02001583YS02001586        0.48      0.48      0.60      0.01         0.01
  YS02001586YS02001590        0.60      0.60      0.67      0.01         0.01
  YS02001590YS02001593        0.68      0.68      0.70      0.73         0.01
  YS02001593YS02001596        0.69      0.69      0.80      0.01         0.01
  YS02001596YS02001600        0.85      0.85      1.00      0.01         0.01
  YS02001600YS02001601        1.12      1.12      1.52      0.01         0.01
  YS02001601YS02001602        1.44      1.44      1.55      0.95         0.01
  YS02001602YS02001605        1.41      1.41      1.44      2.19         0.01
  YS02001605YS02001607        1.38      1.41      1.40      1.30         1.19
  YS02001607YS02001610        0.63      0.63      0.66      0.01         0.01
  YS02001610YS02001613        0.62      0.62      0.66      0.01         0.01
  YS02001613YS02001616        0.57      0.57      0.62      0.01         0.01
  YS02001616YS02001619        0.55      0.55      0.57      0.01         0.01
  YS02001619YS02001622        0.54      0.55      0.54      0.69         0.53
  YS02001622YS02001625        0.54      0.54      0.81      0.01         0.01
  YS02001625YS02001629        0.45      0.45      0.81      0.01         0.01
  YS02001629YS02163301        0.83      0.83      1.20      0.33         0.31
  YS02001633YS02163601        1.24      1.24      1.30      0.46         0.46
  YS02001641YS02001644        1.23      1.24      1.23      1.51         1.18
  YS02001644YS02001647        0.32      0.32      1.23      0.04         0.01
  YS02001647YS02001649        0.32      0.32      0.83      0.01         0.01
  YS02001649YS02001757        0.82      0.83      1.22      0.37         0.31
  YS02001652YS02001649        0.25      0.25      0.83      0.01         0.01
  YS02001655YS02001652        0.15      0.15      0.23      0.01         0.01
  YS02001658YS02001655        0.07      0.07      0.15      0.01         0.01
  YS02001661YS02001658        0.01      0.01      0.07      0.01         0.01
  YS02001664YS02001661        0.01      0.01      0.02      0.01         0.01
  YS02001745YS02001748        0.01      0.01      0.01      0.01         0.01
  YS02001748YS02001751        0.05      0.05      0.10      0.01         0.01
  YS02001751YS02001754        0.10      0.10      0.15      0.01         0.01
  YS02001754YS02001757        0.17      0.17      1.22      0.01         0.01
  YS02001757CaochengTiaoxuchi        0.91      1.22      1.96      0.37         0.02
  YS02001759YS02001757        0.74      0.74      1.22      0.01         0.01
  YS02001762YS02001759        0.62      0.62      0.74      0.01         0.02
  YS02001765YS02001762        0.44      0.44      0.62      0.01         0.01
  YS02001767YS02001765        0.24      0.24      0.44      0.01         0.03
  YS02001770YS02001767        0.23      0.24      0.24      0.45         0.23
  YS02001774YS02001770        0.22      0.22      0.56      0.01         0.01
  YS02001779YS02001774        0.17      0.17      0.56      0.01         0.01
  YS02001783YS02001784        0.42      0.45      0.42      0.59         0.42
  YS02001784YS02001785        0.33      0.42      0.33      0.82         0.33
  YS02001786YS02001788        0.01      0.33      0.01      0.69         0.01
  YS02001790YS02001791        0.01      0.01      0.01      0.41         0.01
  YS02001793JiankangQianchi        0.01      0.01      0.16      0.01         0.01
  YS02001882YS02001884        0.39      0.39      0.40      0.01         0.01
  YS02001884YS02001887        0.43      0.43      0.44      0.01         0.01
  YS02001887YS02001890        0.45      0.45      0.46      0.04         0.01
  YS02001890YS02001895        0.39      0.39      0.48      0.01         0.01
  YS02001895YS02001898        0.38      0.38      0.39      0.01         0.01
  YS02001898YS02001901        0.39      0.39      0.43      0.01         0.01
  YS02001901YS02001904        0.42      0.42      0.43      0.01         0.01
  YS02001904YS02001907        0.42      0.42      0.67      0.01         0.01
  YS02001907YS02006553        0.83      0.83      0.90      0.01         0.01
  YS02001910YS02001907        0.48      0.48      0.65      0.01         0.01
  YS02001915YS02001910        0.39      0.39      0.48      0.01         0.01
  YS02001918YS02001915        0.31      0.31      0.39      0.01         0.01
  YS02001920YS02001918        0.31      0.31      0.33      0.01         0.01
  YS02001923YS02001920        0.27      0.27      0.33      0.01         0.01
  YS02001926YS02001923        0.01      0.01      0.02      0.01         0.01
  YS02001929YS02001926        0.01      0.01      0.02      0.01         0.01
  YS02006553YS02006556        0.56      0.56      0.66      0.01         0.01
  YS02006556YS02006558        0.61      0.61      0.68      0.01         0.01
  YS02006558YS02006561        0.35      0.55      0.35      0.77         0.35
  YS02006561YS02001783        0.28      0.28      0.45      0.01         0.01
  YS02163301YS02001633        1.20      1.20      1.27      0.01         0.01
  YS02163601YS02164001        1.23      1.23      1.30      0.26         0.01
  YS02164001YS02001641        1.23      1.23      1.24      0.69         0.66
  YSB1154YSB6556              0.61      0.61      0.75      0.01         0.01
  YSB1171HS02004479           0.51      0.51      0.76      0.01         0.01
  YSB1174YSB1171              0.67      0.67      1.02      0.01         0.01
  YSB6556YSB1171              0.61      0.61      1.21      0.01         0.01
  
  
  ***************
  Pumping Summary
  ***************
  
  ---------------------------------------------------------------------------------------------------------
                                                  Min       Avg       Max     Total     Power    % Time Off
                        Percent   Number of      Flow      Flow      Flow    Volume     Usage    Pump Curve
  Pump                 Utilized   Start-Ups       LPS       LPS       LPS  10^6 ltr     Kw-hr    Low   High
  ---------------------------------------------------------------------------------------------------------
  CC-R1                   46.87          11      0.00    468.80    683.00     3.214     54.90    0.0   88.0
  CC-R2                   69.79           8      0.00    487.17    683.00     6.363    107.62    0.0   85.1
  CC-S1                   30.21           9      0.00    200.00    200.00     1.740     10.69    0.0   14.8
  CC-S2                   23.96           7      0.00    183.14    200.00     1.133      7.22    0.0   39.1
  JK-R1                   56.25           9      0.00    173.43   1000.00     2.950      8.23    0.0    0.0
  JK-R2                   17.71           8      0.00    185.17   1000.00     1.212      3.09    0.0    0.0
  JK-S                    43.75          10      0.00     59.30    300.00     0.664     14.31    0.0    0.0
  XR-1                    97.91           1      0.00     95.00     95.00     2.679      9.63    0.0    0.0
  XR-2                    93.95           1      0.00     95.00     95.00     2.570      8.79    0.0    0.0
  XR-3                     0.00           0      0.00      0.00      0.00     0.000      0.00    0.0    0.0
  XR-4                     0.00           0      0.00      0.00      0.00     0.000      0.00    0.0    0.0
  

  Analysis begun on:  Thu Jun 15 19:52:16 2023
  Analysis ended on:  Thu Jun 15 19:52:28 2023
  Total elapsed time: 00:00:12