
  OWA STORM WATER MANAGEMENT MODEL - VERSION v5.1.14 (OWA 2022-07-31)
  --------------------------------------------------------------

  WARNING 04: minimum elevation drop used for Conduit WS02004404WS02004405
  WARNING 03: negative offset ignored for Link YS02001904YS02001907
  
  *********************************************************
  NOTE: The summary statistics displayed in this report are
  based on results found at every computational time step,  
  not just on results from each reporting time step.
  *********************************************************
  
  ****************
  Analysis Options
  ****************
  Flow Units ............... LPS
  Process Models:
    Rainfall/Runoff ........ YES
    RDII ................... NO
    Snowmelt ............... NO
    Groundwater ............ NO
    Flow Routing ........... YES
    Ponding Allowed ........ NO
    Water Quality .......... NO
  Infiltration Method ...... HORTON
  Flow Routing Method ...... DYNWAVE
  Surcharge Method ......... EXTRAN
  Starting Date ............ 08/28/2015 08:00:00
  Ending Date .............. 08/28/2015 16:00:00
  Antecedent Dry Days ...... 8.0
  Report Time Step ......... 00:01:00
  Wet Time Step ............ 00:01:00
  Dry Time Step ............ 00:01:00
  Routing Time Step ........ 30.00 sec
  Variable Time Step ....... YES
  Maximum Trials ........... 8
  Number of Threads ........ 4
  Head Tolerance ........... 0.001500 m
  
  
  **************************        Volume         Depth
  Runoff Quantity Continuity     hectare-m            mm
  **************************     ---------       -------
  Total Precipitation ......         2.805        84.578
  Evaporation Loss .........         0.000         0.000
  Infiltration Loss ........         0.106         3.200
  Surface Runoff ...........         2.667        80.391
  Final Storage ............         0.033         0.998
  Continuity Error (%) .....        -0.012
  
  
  **************************        Volume        Volume
  Flow Routing Continuity        hectare-m      10^6 ltr
  **************************     ---------     ---------
  Dry Weather Inflow .......         0.000         0.000
  Wet Weather Inflow .......         2.666        26.663
  Groundwater Inflow .......         0.000         0.000
  RDII Inflow ..............         0.000         0.000
  External Inflow ..........         0.083         0.834
  External Outflow .........         2.474        24.743
  Flooding Loss ............         0.386         3.863
  Evaporation Loss .........         0.000         0.000
  Exfiltration Loss ........         0.000         0.000
  Initial Stored Volume ....         0.243         2.431
  Final Stored Volume ......         0.180         1.802
  Continuity Error (%) .....        -1.607
  
  
  *************************
  Highest Continuity Errors
  *************************
  Node YS02001583 (-3.77%)
  Node YS02001884 (3.70%)
  Node YS02001658 (-2.16%)
  Node WS02006252 (-1.82%)
  Node YS02001774 (1.10%)
  
  
  ***************************
  Time-Step Critical Elements
  ***************************
  Link WS02006252WS02006251 (29.78%)
  Link WS02006238WS02006235 (20.55%)
  Link YS02001791YS02001793 (14.72%)
  Link WS02004404WS02004405 (7.10%)
  Link WS02006235WS02006234 (5.56%)
  
  
  ********************************
  Highest Flow Instability Indexes
  ********************************
  Link WS02006113WS02006111 (42)
  Link WS02006252WS02006251 (39)
  Link WS02006256WS02006235 (29)
  Link WS02006111WS02006112 (28)
  Link WS02006238WS02006235 (27)
  
  
  *************************
  Routing Time Step Summary
  *************************
  Minimum Time Step           :     0.01 sec
  Average Time Step           :     2.15 sec
  Maximum Time Step           :    30.00 sec
  Percent in Steady State     :    -0.00
  Average Iterations per Step :     4.68
  Percent Not Converging      :    34.84
  
  
  ***************************
  Subcatchment Runoff Summary
  ***************************
  
  ------------------------------------------------------------------------------------------------------------------------------
                            Total      Total      Total      Total     Imperv       Perv      Total       Total     Peak  Runoff
                           Precip      Runon       Evap      Infil     Runoff     Runoff     Runoff      Runoff   Runoff   Coeff
  Subcatchment                 mm         mm         mm         mm         mm         mm         mm    10^6 ltr      LPS
  ------------------------------------------------------------------------------------------------------------------------------
  sub60                     84.58       0.00       0.00       1.93      73.22       8.23      81.45        1.07   203.88   0.963
  sub61                     84.58       0.00       0.00       2.80      69.07      11.58      80.65        1.48   281.97   0.954
  sub62                     84.58       0.00       0.00       1.28      76.52       5.48      82.01        2.25   423.60   0.970
  sub63                     84.58       0.00       0.00       5.16      59.08      19.36      78.44        1.78   329.77   0.927
  sub64                     84.58       0.00       0.00       2.61      70.68      10.08      80.76        1.94   359.94   0.955
  sub65                     84.58       0.00       0.00       2.26      72.32       8.74      81.06        2.23   411.17   0.958
  sub66                     84.58       0.00       0.00       6.32      58.97      18.21      77.18        3.60   581.97   0.912
  sub67                     84.58       0.00       0.00       1.23      76.57       5.54      82.11        1.53   291.26   0.971
  sub68                     84.58       0.00       0.00       2.32      71.55       9.52      81.07        2.23   422.85   0.959
  sub69                     84.58       0.00       0.00       2.10      71.77      10.58      82.36        3.05   553.71   0.974
  sub70                     84.58       0.00       0.00       6.84      55.65      21.91      77.56        2.24   349.18   0.917
  sub71                     84.58       0.00       0.00       1.32      76.48       5.45      81.93        2.14   396.57   0.969
  sub72                     84.58       0.00       0.00       1.17      77.24       4.75      81.99        1.13   202.44   0.969
  
  
  ******************
  Node Depth Summary
  ******************
  
  ---------------------------------------------------------------------------------
                                 Average  Maximum  Maximum  Time of Max    Reported
                                   Depth    Depth      HGL   Occurrence   Max Depth
  Node                 Type       Meters   Meters   Meters  days hr:min      Meters
  ---------------------------------------------------------------------------------
  WS02003060           JUNCTION     0.23     0.38     5.32     0  01:47        0.38
  WS02003066           JUNCTION     0.19     0.30     5.85     0  01:47        0.30
  WS02003067           JUNCTION     0.50     0.70     6.02     0  01:46        0.70
  WS02003069           JUNCTION     0.25     0.43     5.02     0  01:48        0.43
  WS02003072           JUNCTION     0.31     0.50     4.87     0  01:48        0.50
  WS02003073           JUNCTION     0.18     0.30     4.36     0  01:49        0.30
  WS02004401           JUNCTION     0.61     0.88     6.88     0  01:46        0.88
  WS02004402           JUNCTION     0.64     0.90     6.86     0  01:44        0.90
  WS02004403           JUNCTION     0.66     0.92     6.85     0  01:46        0.92
  WS02004404           JUNCTION     0.74     1.04     6.89     0  01:46        1.00
  WS02004405           JUNCTION     0.73     0.97     6.82     0  01:44        0.96
  WS02004406           JUNCTION     0.74     0.96     6.79     0  01:45        0.96
  WS02004407           JUNCTION     0.18     0.30     6.61     0  01:45        0.30
  WS02004409           JUNCTION     0.39     0.67     6.44     0  01:45        0.67
  WS02004410           JUNCTION     0.42     0.68     6.40     0  01:45        0.68
  WS02004411           JUNCTION     0.44     0.69     6.37     0  01:46        0.69
  WS02004412           JUNCTION     0.46     0.70     6.34     0  01:46        0.70
  WS02004413           JUNCTION     0.62     0.86     6.33     0  01:46        0.86
  WS02006109           JUNCTION     0.66     1.24     7.85     0  00:00        0.97
  WS02006110           JUNCTION     0.66     1.45     8.04     0  00:00        0.92
  WS02006111           JUNCTION     0.18     1.67     8.37     0  00:00        0.54
  WS02006112           JUNCTION     0.76     2.68     8.56     0  00:00        1.21
  WS02006113           JUNCTION     0.27     1.50     8.40     0  00:00        0.45
  WS02006115           JUNCTION     0.49     1.69     7.83     0  00:00        0.86
  WS02006116           JUNCTION     0.57     1.11     7.15     0  00:00        0.85
  WS02006228           JUNCTION     0.65     1.64     8.29     0  00:00        1.01
  WS02006229           JUNCTION     0.62     1.31     8.00     0  00:00        1.01
  WS02006230           JUNCTION     0.62     1.22     7.97     0  03:30        1.12
  WS02006231           JUNCTION     0.42     0.97     8.09     0  03:31        0.86
  WS02006232           JUNCTION     0.55     1.13     8.17     0  03:30        1.06
  WS02006234           JUNCTION     0.48     1.24     8.40     0  03:51        1.07
  WS02006235           JUNCTION     0.51     1.26     8.43     0  03:31        1.15
  WS02006238           JUNCTION     0.54     1.30     8.44     0  03:31        1.19
  WS02006239           JUNCTION     0.52     1.63     8.84     0  01:15        1.17
  WS02006240           JUNCTION     0.49     1.40     8.69     0  01:15        1.15
  WS02006242           JUNCTION     0.57     1.55     8.82     0  01:15        1.22
  WS02006243           JUNCTION     0.49     1.48     8.90     0  01:15        1.12
  WS02006245           JUNCTION     0.49     1.25     8.74     0  01:28        1.12
  WS02006247           JUNCTION     0.52     1.23     8.73     0  01:28        1.15
  WS02006248           JUNCTION     0.48     1.10     8.69     0  01:28        1.10
  WS02006249           JUNCTION     0.51     1.09     8.69     0  01:29        1.09
  WS02006251           JUNCTION     0.50     1.48     9.15     0  00:00        1.17
  WS02006252           JUNCTION     0.36     1.50     9.74     0  01:09        0.73
  WS02006256           JUNCTION     0.93     2.35     9.28     0  00:00        2.35
  WSF200               JUNCTION     0.16     0.29     5.52     0  01:47        0.29
  YS02001580           JUNCTION     0.23     1.05     9.59     0  01:16        0.83
  YS02001583           JUNCTION     0.26     1.14     9.64     0  01:16        0.83
  YS02001586           JUNCTION     0.39     1.13     9.30     0  01:16        1.13
  YS02001590           JUNCTION     0.51     1.39     9.25     0  01:16        1.38
  YS02001593           JUNCTION     0.45     1.31     9.18     0  01:16        1.29
  YS02001596           JUNCTION     0.59     1.68     9.10     0  01:16        1.68
  YS02001600           JUNCTION     0.69     1.87     9.00     0  01:16        1.86
  YS02001601           JUNCTION     0.87     2.06     8.90     0  01:16        2.06
  YS02001602           JUNCTION     0.76     1.87     8.77     0  01:16        1.87
  YS02001605           JUNCTION     0.71     1.78     8.68     0  01:16        1.77
  YS02001607           JUNCTION     0.67     1.68     8.53     0  01:16        1.68
  YS02001610           JUNCTION     0.71     1.68     8.48     0  01:16        1.68
  YS02001613           JUNCTION     0.67     1.68     8.52     0  02:53        1.65
  YS02001616           JUNCTION     0.60     1.61     8.52     0  01:16        1.60
  YS02001619           JUNCTION     0.58     1.61     8.54     0  01:16        1.61
  YS02001622           JUNCTION     0.57     1.62     8.52     0  01:16        1.55
  YS02001625           JUNCTION     0.82     1.78     8.38     0  01:25        1.78
  YS02001629           JUNCTION     0.71     1.85     8.40     0  01:16        1.85
  YS02001633           JUNCTION     0.78     2.08     8.53     0  02:38        2.08
  YS02001641           JUNCTION     0.73     2.10     8.54     0  01:51        2.10
  YS02001644           JUNCTION     0.71     1.92     8.35     0  01:51        1.92
  YS02001647           JUNCTION     0.50     1.90     8.51     0  02:38        1.90
  YS02001649           JUNCTION     0.56     1.94     8.33     0  01:51        1.94
  YS02001652           JUNCTION     0.44     2.13     8.73     0  02:55        1.88
  YS02001655           JUNCTION     0.34     2.20     9.05     0  02:54        1.68
  YS02001658           JUNCTION     0.24     2.07     9.22     0  01:59        1.19
  YS02001661           JUNCTION     0.20     0.68     8.09     0  02:07        0.68
  YS02001664           JUNCTION     0.08     0.22     8.14     0  01:31        0.22
  YS02001745           JUNCTION     0.10     0.49     8.01     0  02:08        0.47
  YS02001748           JUNCTION     0.22     0.92     8.00     0  02:08        0.91
  YS02001751           JUNCTION     0.29     1.31     8.19     0  02:18        1.12
  YS02001754           JUNCTION     0.39     1.45     8.06     0  02:18        1.34
  YS02001757           JUNCTION     0.58     1.82     8.08     0  02:11        1.77
  YS02001759           JUNCTION     0.51     1.77     8.14     0  01:51        1.77
  YS02001762           JUNCTION     0.50     1.83     8.23     0  01:51        1.83
  YS02001765           JUNCTION     0.48     1.77     8.22     0  01:51        1.77
  YS02001767           JUNCTION     0.47     1.80     8.29     0  02:11        1.80
  YS02001770           JUNCTION     0.48     1.95     8.44     0  02:11        1.95
  YS02001774           JUNCTION     0.54     2.05     8.47     0  02:11        2.05
  YS02001779           JUNCTION     0.37     1.68     8.37     0  02:11        1.68
  YS02001783           JUNCTION     0.37     1.21     7.35     0  01:25        1.20
  YS02001784           JUNCTION     0.36     1.10     7.17     0  01:34        1.10
  YS02001786           JUNCTION     0.29     0.87     6.90     0  01:25        0.86
  YS02001788           JUNCTION     0.22     0.62     6.59     0  01:30        0.61
  YS02001790           JUNCTION     0.25     0.72     6.36     0  01:36        0.71
  YS02001791           JUNCTION     0.15     0.43     5.90     0  01:33        0.43
  YS02001793           JUNCTION     0.08     0.27     5.10     0  01:25        0.25
  YS02001882           JUNCTION     0.46     1.58     8.29     0  01:30        1.56
  YS02001884           JUNCTION     0.55     1.68     8.29     0  01:30        1.67
  YS02001887           JUNCTION     0.62     1.76     8.30     0  01:45        1.76
  YS02001890           JUNCTION     0.64     1.79     8.29     0  01:45        1.79
  YS02001895           JUNCTION     0.43     1.54     8.28     0  01:30        1.52
  YS02001898           JUNCTION     0.44     1.54     8.27     0  01:30        1.54
  YS02001901           JUNCTION     0.54     1.66     8.27     0  01:30        1.66
  YS02001904           JUNCTION     0.53     1.68     8.31     0  01:30        1.68
  YS02001907           JUNCTION     0.83     1.96     8.25     0  01:25        1.96
  YS02001910           JUNCTION     0.64     1.82     8.33     0  01:26        1.82
  YS02001915           JUNCTION     0.46     1.65     8.37     0  01:26        1.65
  YS02001918           JUNCTION     0.28     1.33     8.40     0  01:26        1.33
  YS02001920           JUNCTION     0.34     1.37     8.38     0  01:26        1.37
  YS02001923           JUNCTION     0.22     1.11     8.37     0  01:26        1.09
  YS02001926           JUNCTION     0.22     0.93     8.38     0  01:26        0.92
  YS02001929           JUNCTION     0.13     0.70     8.39     0  01:26        0.65
  YS02006553           JUNCTION     0.83     1.96     8.24     0  01:27        1.96
  YS02006556           JUNCTION     0.80     1.90     8.21     0  01:30        1.90
  YS02006558           JUNCTION     0.83     1.94     8.20     0  01:25        1.93
  YS02006561           JUNCTION     0.23     0.86     7.52     0  01:25        0.85
  YS02163301           JUNCTION     0.73     2.03     8.55     0  02:38        2.03
  YS02163601           JUNCTION     0.80     2.08     8.48     0  01:51        2.08
  YS02164001           JUNCTION     0.73     2.10     8.56     0  01:51        2.10
  CC-1                 OUTFALL      0.00     0.00     0.00     0  00:00        0.00
  CC-2                 OUTFALL      0.00     0.00     0.00     0  00:00        0.00
  JK-1                 OUTFALL      0.00     0.00     0.00     0  00:00        0.00
  JK-2                 OUTFALL      0.00     0.00     0.00     0  00:00        0.00
  WSC                  OUTFALL      0.17     0.30     0.97     0  01:50        0.30
  CC-storage           STORAGE      0.93     1.88     7.38     0  02:52        1.88
  JK-storage           STORAGE      1.32     4.21     5.01     0  01:24        4.19
  
  
  *******************
  Node Inflow Summary
  *******************
  
  -------------------------------------------------------------------------------------------------
                                  Maximum  Maximum                  Lateral       Total        Flow
                                  Lateral    Total  Time of Max      Inflow      Inflow     Balance
                                   Inflow   Inflow   Occurrence      Volume      Volume       Error
  Node                 Type           LPS      LPS  days hr:min    10^6 ltr    10^6 ltr     Percent
  -------------------------------------------------------------------------------------------------
  WS02003060           JUNCTION     16.53   555.41     0  01:47       0.476        5.97       0.038
  WS02003066           JUNCTION      0.00   538.44     0  01:47           0        5.49       0.025
  WS02003067           JUNCTION      0.00   538.36     0  01:46           0         5.5       0.075
  WS02003069           JUNCTION      0.32   555.28     0  01:47     0.00922        5.97       0.064
  WS02003072           JUNCTION      0.00   554.87     0  01:48           0        5.97       0.117
  WS02003073           JUNCTION      1.82   556.52     0  01:49      0.0524        6.01       0.090
  WS02004401           JUNCTION      0.00  1791.60     0  00:00           0         5.6       0.193
  WS02004402           JUNCTION      0.00  1254.90     0  00:01           0        5.59       0.194
  WS02004403           JUNCTION      0.00   919.18     0  00:01           0        5.58       0.188
  WS02004404           JUNCTION      0.00   867.70     0  00:01           0        5.57       0.119
  WS02004405           JUNCTION      0.00   859.04     0  00:01           0        5.56       0.190
  WS02004406           JUNCTION      0.00   734.85     0  00:02           0        5.55       0.389
  WS02004407           JUNCTION      0.00   541.37     0  01:45           0        5.53       0.018
  WS02004409           JUNCTION      0.00   540.33     0  01:45           0        5.53       0.048
  WS02004410           JUNCTION      0.00   539.70     0  01:45           0        5.53       0.080
  WS02004411           JUNCTION      0.00   539.34     0  01:45           0        5.52       0.100
  WS02004412           JUNCTION      0.00   538.84     0  01:46           0        5.52       0.133
  WS02004413           JUNCTION      0.00   538.90     0  01:46           0        5.51       0.244
  WS02006109           JUNCTION      0.00  1446.81     0  00:00           0         5.5      -0.144
  WS02006110           JUNCTION      0.00   544.52     0  03:30           0        5.47      -0.996
  WS02006111           JUNCTION      0.00  1180.41     0  00:00           0        5.53      -0.756
  WS02006112           JUNCTION      0.00  2307.30     0  00:00           0        5.57      -0.002
  WS02006113           JUNCTION      0.00   556.74     0  01:30           0        5.49      -0.693
  WS02006115           JUNCTION      0.00   937.16     0  00:00           0        5.54      -0.637
  WS02006116           JUNCTION      0.00  1254.80     0  00:00           0        5.57      -0.468
  WS02006228           JUNCTION      0.00   869.18     0  00:00           0        5.48      -0.040
  WS02006229           JUNCTION      0.00   541.68     0  01:29           0        5.46      -0.051
  WS02006230           JUNCTION     10.28   687.18     0  00:00       0.296        5.45       0.019
  WS02006231           JUNCTION      0.00   572.77     0  03:50           0        5.14      -0.049
  WS02006232           JUNCTION      0.00   571.93     0  03:50           0        5.14       0.162
  WS02006234           JUNCTION      0.00   567.02     0  03:50           0        5.13      -0.094
  WS02006235           JUNCTION      0.00   559.32     0  03:50           0        5.15       0.086
  WS02006238           JUNCTION      0.00   425.82     0  03:31           0        4.63      -0.077
  WS02006239           JUNCTION      0.00   425.72     0  03:31           0        4.62      -0.078
  WS02006240           JUNCTION      0.00   423.62     0  03:51           0        4.61      -0.012
  WS02006242           JUNCTION      0.00   423.12     0  03:51           0         4.6      -0.059
  WS02006243           JUNCTION      0.00   423.31     0  03:31           0         4.6      -0.078
  WS02006245           JUNCTION      0.00   423.83     0  03:31           0        4.61       0.189
  WS02006247           JUNCTION      0.00   424.16     0  03:51           0        4.61       0.014
  WS02006248           JUNCTION      0.00   423.62     0  03:51           0        4.61       0.044
  WS02006249           JUNCTION      0.00   843.88     0  00:00           0        4.69       0.119
  WS02006251           JUNCTION      0.00   478.35     0  00:00           0        4.68      -0.237
  WS02006252           JUNCTION      0.00   400.00     0  00:00           0        4.59      -1.785
  WS02006256           JUNCTION      0.00   300.00     0  00:00           0       0.751      -0.951
  WSF200               JUNCTION      0.00   538.52     0  01:47           0        5.49       0.008
  YS02001580           JUNCTION      0.00    77.56     0  01:16           0      0.0045       1.879
  YS02001583           JUNCTION      0.00   121.17     0  01:16           0      0.0161      -3.633
  YS02001586           JUNCTION    349.18   349.32     0  02:06        2.24        2.25       0.064
  YS02001590           JUNCTION      0.00   318.61     0  01:45           0        2.18      -0.028
  YS02001593           JUNCTION      0.00   318.59     0  01:45           0        2.18       0.013
  YS02001596           JUNCTION      0.00   317.98     0  01:34           0        2.18      -0.012
  YS02001600           JUNCTION      0.00   318.18     0  02:11           0        2.18       0.011
  YS02001601           JUNCTION    553.71   871.29     0  01:31        3.05        5.23       0.008
  YS02001602           JUNCTION      0.00   538.75     0  01:15           0         3.3       0.012
  YS02001605           JUNCTION      0.00   539.03     0  01:15           0        2.98       0.015
  YS02001607           JUNCTION      0.00   539.27     0  01:15           0        2.98       0.062
  YS02001610           JUNCTION      0.00   548.58     0  01:16           0        2.98       0.085
  YS02001613           JUNCTION      0.00   552.90     0  01:16           0        2.58       0.069
  YS02001616           JUNCTION      0.00   558.55     0  01:16           0        2.59       0.018
  YS02001619           JUNCTION    581.97   910.63     0  01:24         3.6        6.18       0.000
  YS02001622           JUNCTION      0.00   911.03     0  01:24           0        6.17      -0.002
  YS02001625           JUNCTION      0.00   915.59     0  01:16           0        6.17       0.196
  YS02001629           JUNCTION      0.00   915.45     0  01:16           0        5.46      -0.012
  YS02001633           JUNCTION    411.17  1293.45     0  01:24        2.23         7.7       0.036
  YS02001641           JUNCTION      0.00  1293.31     0  01:24           0         7.7       0.033
  YS02001644           JUNCTION    359.94  1632.92     0  01:24        1.94        9.63       0.029
  YS02001647           JUNCTION      0.00  1632.79     0  01:24           0        9.61      -0.009
  YS02001649           JUNCTION      0.00  1942.22     0  01:23           0        11.4       0.015
  YS02001652           JUNCTION      0.00   427.57     0  01:27           0        1.82       0.122
  YS02001655           JUNCTION      0.00   487.32     0  01:42           0        1.82      -0.387
  YS02001658           JUNCTION      0.00   738.53     0  01:55           0         1.9      -2.110
  YS02001661           JUNCTION      0.00   469.37     0  01:53           0         1.9       0.185
  YS02001664           JUNCTION    329.77   329.77     0  01:31        1.78        1.78      -0.011
  YS02001745           JUNCTION    203.88   214.18     0  02:15        1.07         1.1       0.241
  YS02001748           JUNCTION      0.00   368.58     0  02:09           0         1.1      -0.327
  YS02001751           JUNCTION      0.00   300.80     0  01:58           0        1.07      -0.339
  YS02001754           JUNCTION      0.00   273.98     0  01:51           0        1.07      -0.195
  YS02001757           JUNCTION      0.00  2810.22     0  01:23           0        16.2       0.028
  YS02001759           JUNCTION    281.97   718.53     0  01:31        1.48        3.74      -0.035
  YS02001762           JUNCTION      0.00   437.33     0  01:31           0        2.26      -0.019
  YS02001765           JUNCTION      0.00   437.13     0  01:31           0        2.25      -0.001
  YS02001767           JUNCTION      0.00   446.38     0  01:27           0        2.25      -0.006
  YS02001770           JUNCTION    423.60   436.78     0  01:26        2.25        2.31      -0.052
  YS02001774           JUNCTION      0.00    86.76     0  01:25           0      0.0862       1.110
  YS02001779           JUNCTION      0.00    72.05     0  01:26           0      0.0282      -2.436
  YS02001783           JUNCTION      0.00  1142.17     0  01:30           0        6.86       0.001
  YS02001784           JUNCTION      0.00  1142.34     0  01:30           0        6.86       0.000
  YS02001786           JUNCTION      0.00  1142.05     0  01:31           0        6.86       0.005
  YS02001788           JUNCTION      0.00  1142.24     0  01:30           0        6.86       0.003
  YS02001790           JUNCTION      0.00  1155.34     0  01:31           0        6.86       0.016
  YS02001791           JUNCTION      0.00  1268.49     0  01:36           0        6.86      -0.029
  YS02001793           JUNCTION      0.00  1222.66     0  01:33           0        6.86       0.003
  YS02001882           JUNCTION      0.00    77.44     0  01:14           0      0.0158       2.846
  YS02001884           JUNCTION      0.00   138.04     0  01:13           0      0.0522       3.846
  YS02001887           JUNCTION    291.26   294.41     0  01:20        1.53        1.56       0.273
  YS02001890           JUNCTION      0.00   294.75     0  01:20           0        1.52       0.263
  YS02001895           JUNCTION      0.00   295.03     0  01:19           0        1.52       0.178
  YS02001898           JUNCTION      0.00   298.53     0  01:20           0        1.51      -0.076
  YS02001901           JUNCTION      0.00   294.57     0  01:30           0        1.52       0.185
  YS02001904           JUNCTION      0.00   295.81     0  01:30           0        1.53       0.138
  YS02001907           JUNCTION      0.00   945.71     0  01:27           0         4.8       0.343
  YS02001910           JUNCTION      0.00   657.14     0  01:27           0        3.27       0.199
  YS02001915           JUNCTION    396.57   657.00     0  01:27        2.14        3.27       0.028
  YS02001918           JUNCTION      0.00   271.40     0  01:27           0        1.13       0.015
  YS02001920           JUNCTION      0.00   271.37     0  01:27           0        1.13       0.053
  YS02001923           JUNCTION      0.00   253.72     0  01:27           0        1.13      -0.016
  YS02001926           JUNCTION      0.00   241.65     0  01:27           0        1.13       0.038
  YS02001929           JUNCTION    202.44   202.44     0  01:32        1.13        1.13      -0.009
  YS02006553           JUNCTION      0.00   777.82     0  01:43           0         4.7       0.242
  YS02006556           JUNCTION      0.00   777.64     0  01:45           0        4.72       0.146
  YS02006558           JUNCTION    422.85  1143.25     0  01:30        2.23        6.91       0.046
  YS02006561           JUNCTION      0.00  1142.17     0  01:31           0        6.86      -0.001
  YS02163301           JUNCTION      0.00   910.74     0  01:24           0        5.47       0.021
  YS02163601           JUNCTION      0.00  1293.15     0  01:24           0        7.68       0.060
  YS02164001           JUNCTION      0.00  1292.73     0  01:24           0        7.69       0.023
  CC-1                 OUTFALL       0.00   683.00     0  00:00           0        6.84       0.000
  CC-2                 OUTFALL       0.00   683.00     0  00:00           0        5.67       0.000
  JK-1                 OUTFALL       0.00  1000.00     0  00:00           0        3.86       0.000
  JK-2                 OUTFALL       0.00  1000.00     0  01:45           0        2.36       0.000
  WSC                  OUTFALL       0.00   556.34     0  01:50           0        6.01       0.000
  CC-storage           STORAGE       0.00  2673.10     0  01:30           0        18.5      -0.178
  JK-storage           STORAGE       0.00  1241.25     0  01:31           0        7.01      -0.249
  
  
  **********************
  Node Surcharge Summary
  **********************
  
  Surcharging occurs when water rises above the top of the highest conduit.
  ---------------------------------------------------------------------
                                               Max. Height   Min. Depth
                                   Hours       Above Crown    Below Rim
  Node                 Type      Surcharged         Meters       Meters
  ---------------------------------------------------------------------
  WS02004404           JUNCTION        0.01          0.038        2.742
  WS02006109           JUNCTION        2.75          0.416        1.404
  WS02006110           JUNCTION        0.27          0.544        1.306
  WS02006111           JUNCTION        0.01          0.856        1.014
  WS02006112           JUNCTION        0.31          1.680        0.000
  WS02006113           JUNCTION        0.01          0.705        1.225
  WS02006115           JUNCTION        0.01          0.682        1.568
  WS02006116           JUNCTION        0.01          0.053        2.237
  WS02006228           JUNCTION        2.73          0.810        1.390
  WS02006229           JUNCTION        2.76          0.510        1.940
  WS02006230           JUNCTION        0.27          0.141        1.429
  WS02006231           JUNCTION        0.30          0.258        1.272
  WS02006232           JUNCTION        2.82          0.428        1.052
  WS02006234           JUNCTION        0.77          0.521        0.719
  WS02006235           JUNCTION        2.76          0.552        0.738
  WS02006238           JUNCTION        2.79          0.580        0.850
  WS02006239           JUNCTION        2.75          0.886        0.404
  WS02006240           JUNCTION        2.74          0.690        0.700
  WS02006242           JUNCTION        2.82          0.820        0.000
  WS02006243           JUNCTION        2.55          0.770        0.000
  WS02006245           JUNCTION        2.54          0.542        0.308
  WS02006247           JUNCTION        2.55          0.524        0.236
  WS02006248           JUNCTION        2.53          0.380        0.000
  WS02006249           JUNCTION        2.54          0.390        0.000
  WS02006251           JUNCTION        0.34          0.453        0.727
  WS02006252           JUNCTION        3.07          1.100        0.000
  WS02006256           JUNCTION        7.48          2.050        0.000
  YS02001580           JUNCTION        1.40          0.450        0.000
  YS02001583           JUNCTION        1.44          0.500        0.000
  YS02001586           JUNCTION        1.78          0.510        0.000
  YS02001590           JUNCTION        1.84          0.740        0.010
  YS02001593           JUNCTION        1.84          0.694        0.146
  YS02001596           JUNCTION        1.92          0.946        0.124
  YS02001600           JUNCTION        2.00          1.190        0.000
  YS02001601           JUNCTION        2.18          1.440        0.000
  YS02001602           JUNCTION        2.13          1.270        0.000
  YS02001605           JUNCTION        2.10          1.180        0.000
  YS02001607           JUNCTION        1.83          0.680        0.000
  YS02001610           JUNCTION        1.85          0.680        0.000
  YS02001613           JUNCTION        1.83          0.678        0.022
  YS02001616           JUNCTION        1.80          0.610        0.000
  YS02001619           JUNCTION        1.79          0.610        0.000
  YS02001622           JUNCTION        1.79          0.620        0.000
  YS02001625           JUNCTION        1.92          0.780        0.000
  YS02001629           JUNCTION        1.75          0.470        0.000
  YS02001633           JUNCTION        1.95          1.060        0.000
  YS02001641           JUNCTION        1.93          1.100        0.000
  YS02001644           JUNCTION        1.91          0.920        0.000
  YS02001647           JUNCTION        1.65          0.900        0.000
  YS02001649           JUNCTION        1.78          0.935        0.115
  YS02001652           JUNCTION        1.58          1.101        0.029
  YS02001655           JUNCTION        0.99          1.200        0.000
  YS02001658           JUNCTION        0.08          1.074        0.226
  YS02001751           JUNCTION        0.36          0.313        0.887
  YS02001754           JUNCTION        1.47          0.399        0.751
  YS02001757           JUNCTION        1.83          0.824        0.386
  YS02001759           JUNCTION        1.73          0.774        0.436
  YS02001762           JUNCTION        1.70          0.825        0.325
  YS02001765           JUNCTION        1.66          0.766        0.334
  YS02001767           JUNCTION        1.63          0.798        0.232
  YS02001770           JUNCTION        1.60          0.920        0.000
  YS02001774           JUNCTION        1.69          1.049        0.001
  YS02001779           JUNCTION        1.46          0.680        0.000
  YS02001783           JUNCTION        1.24          0.406        1.194
  YS02001784           JUNCTION        1.18          0.298        1.192
  YS02001786           JUNCTION        0.83          0.068        1.362
  YS02001882           JUNCTION        1.01          0.578        0.252
  YS02001884           JUNCTION        1.07          0.617        0.253
  YS02001887           JUNCTION        1.21          0.714        0.236
  YS02001890           JUNCTION        1.25          0.738        0.022
  YS02001895           JUNCTION        0.98          0.537        0.213
  YS02001898           JUNCTION        0.96          0.509        0.231
  YS02001901           JUNCTION        1.18          0.661        0.209
  YS02001904           JUNCTION        1.15          0.682        0.168
  YS02001907           JUNCTION        1.76          0.950        0.000
  YS02001910           JUNCTION        1.30          0.820        0.280
  YS02001915           JUNCTION        1.02          0.652        0.348
  YS02001918           JUNCTION        0.80          0.330        0.480
  YS02001920           JUNCTION        0.83          0.373        0.767
  YS02006553           JUNCTION        1.79          0.958        0.232
  YS02006556           JUNCTION        1.49          0.864        0.486
  YS02006558           JUNCTION        1.46          0.838        0.562
  YS02006561           JUNCTION        0.72          0.063        1.087
  YS02163301           JUNCTION        1.93          1.030        0.000
  YS02163601           JUNCTION        1.98          1.080        0.000
  YS02164001           JUNCTION        1.93          1.100        0.000
  
  
  *********************
  Node Flooding Summary
  *********************
  
  Flooding refers to all water that overflows a node, whether it ponds or not.
  --------------------------------------------------------------------------
                                                             Total   Maximum
                                 Maximum   Time of Max       Flood    Ponded
                        Hours       Rate    Occurrence      Volume     Depth
  Node                 Flooded       LPS   days hr:min    10^6 ltr    Meters
  --------------------------------------------------------------------------
  WS02006112              0.01   1405.86      0  00:00       0.047     0.000
  WS02006242              0.01     57.29      0  01:15       0.000     0.000
  WS02006243              0.01     91.00      0  01:15       0.000     0.000
  WS02006248              0.01     29.77      0  01:28       0.000     0.000
  WS02006249              0.31    111.30      0  01:29       0.075     0.000
  WS02006252              0.01    232.84      0  04:15       0.000     0.000
  WS02006256              0.70    288.75      0  04:10       0.236     0.000
  YS02001580              0.01     46.56      0  01:16       0.000     0.000
  YS02001583              0.01     91.49      0  01:16       0.000     0.000
  YS02001586              0.82     55.16      0  01:16       0.060     0.000
  YS02001600              0.01      0.69      0  01:16       0.000     0.000
  YS02001601              1.73    473.49      0  01:31       1.926     0.000
  YS02001602              1.56     62.15      0  02:28       0.319     0.000
  YS02001605              0.01      4.66      0  01:16       0.000     0.000
  YS02001607              0.01      7.75      0  01:16       0.000     0.000
  YS02001610              1.31    128.05      0  01:34       0.403     0.000
  YS02001616              0.01     50.03      0  01:16       0.000     0.000
  YS02001619              0.01     48.84      0  01:16       0.000     0.000
  YS02001622              0.01     87.13      0  01:16       0.000     0.000
  YS02001625              1.32    310.90      0  02:06       0.705     0.000
  YS02001629              0.03     81.50      0  01:16       0.000     0.000
  YS02001633              0.01      1.19      0  02:38       0.000     0.000
  YS02001641              0.01      5.85      0  01:51       0.000     0.000
  YS02001644              0.01     13.98      0  01:59       0.000     0.000
  YS02001647              0.01      1.34      0  02:38       0.000     0.000
  YS02001655              0.01    292.62      0  02:55       0.000     0.000
  YS02001770              0.01      7.36      0  02:11       0.000     0.000
  YS02001779              0.01      4.67      0  02:11       0.000     0.000
  YS02001907              0.32    221.69      0  01:27       0.107     0.000
  YS02163301              0.01      1.31      0  02:38       0.000     0.000
  YS02163601              0.01      3.86      0  01:51       0.000     0.000
  YS02164001              0.01      9.93      0  01:51       0.000     0.000
  
  
  **********************
  Storage Volume Summary
  **********************
  
  --------------------------------------------------------------------------------------------------
                         Average     Avg  Evap Exfil       Maximum     Max    Time of Max    Maximum
                          Volume    Pcnt  Pcnt  Pcnt        Volume    Pcnt     Occurrence    Outflow
  Storage Unit           1000 m3    Full  Loss  Loss       1000 m3    Full    days hr:min        LPS
  --------------------------------------------------------------------------------------------------
  CC-storage               2.578      40     0     0         5.233      82       0  02:52    1794.93
  JK-storage               0.066      23     0     0         0.211      73       0  01:24    2300.00
  
  
  ***********************
  Outfall Loading Summary
  ***********************
  
  -----------------------------------------------------------
                         Flow       Avg       Max       Total
                         Freq      Flow      Flow      Volume
  Outfall Node           Pcnt       LPS       LPS    10^6 ltr
  -----------------------------------------------------------
  CC-1                  44.38    683.00    683.00       6.842
  CC-2                  34.53    683.00    683.00       5.666
  JK-1                  18.78   1000.00   1000.00       3.865
  JK-2                  10.22   1000.00   1000.00       2.360
  WSC                   99.99    239.93    556.34       6.009
  -----------------------------------------------------------
  System                41.58   3605.93    556.34      24.743
  
  
  ********************
  Link Flow Summary
  ********************
  
  -----------------------------------------------------------------------------
                                 Maximum  Time of Max   Maximum    Max/    Max/
                                  |Flow|   Occurrence   |Veloc|    Full    Full
  Link                 Type          LPS  days hr:min     m/sec    Flow   Depth
  -----------------------------------------------------------------------------
  1                    CONDUIT    556.34     0  01:50      2.83    0.19    0.30
  WS02003060WS02003069 CONDUIT    554.96     0  01:47      1.64    0.22    0.34
  WS02003066WSF200     CONDUIT    538.52     0  01:47      2.85    0.09    0.22
  WS02003067WS02003066 CONDUIT    538.44     0  01:47      1.21    0.17    0.42
  WS02003069WS02003072 CONDUIT    554.87     0  01:48      1.37    0.27    0.39
  WS02003072WS02003073 CONDUIT    554.70     0  01:49      1.44    1.20    0.37
  WS02004401WS02004402 CONDUIT   1254.90     0  00:01      2.61    1.51    0.89
  WS02004402WS02004403 CONDUIT    919.18     0  00:01      2.26    1.32    0.91
  WS02004403WS02004404 CONDUIT    867.70     0  00:01      2.00    0.63    0.96
  WS02004404WS02004405 CONDUIT    859.04     0  00:01      2.43    8.42    0.98
  WS02004405WS02004406 CONDUIT    734.85     0  00:02      2.27    1.45    0.96
  WS02004406WS02004407 CONDUIT    541.37     0  01:45      1.04    0.24    0.63
  WS02004407WS02004409 CONDUIT    540.33     0  01:45      1.97    0.19    0.48
  WS02004409WS02004410 CONDUIT    539.70     0  01:45      1.35    0.70    0.68
  WS02004410WS02004411 CONDUIT    539.34     0  01:45      1.29    0.74    0.69
  WS02004411WS02004412 CONDUIT    538.84     0  01:46      1.26    0.77    0.70
  WS02004412WS02004413 CONDUIT    538.90     0  01:46      1.26    0.36    0.78
  WS02004413WS02003067 CONDUIT    538.36     0  01:46      1.11    0.23    0.59
  WS02006109WS02006110 CONDUIT   1446.81     0  00:00      2.88    2.78    1.00
  WS02006110WS02006113 CONDUIT    556.74     0  01:30      1.34    0.51    1.00
  WS02006111WS02006112 CONDUIT   2307.30     0  00:00      9.18    1.10    1.00
  WS02006112WS02006115 CONDUIT    937.16     0  00:00      1.22    0.55    1.00
  WS02006113WS02006111 CONDUIT   1180.41     0  00:00      2.46    1.41    1.00
  WS02006115WS02006116 CONDUIT   1254.80     0  00:00      1.72    1.61    1.00
  WS02006116WS02004401 CONDUIT   1791.60     0  00:00      2.97    2.47    0.87
  WS02006228WS02006109 CONDUIT    869.18     0  00:00      1.91    3.80    1.00
  WS02006229WS02006228 CONDUIT    541.37     0  01:29      1.08    1.79    1.00
  WS02006230WS02006229 CONDUIT    676.90     0  00:00      1.89   15.06    1.00
  WS02006231WS02006230 CONDUIT    576.91     0  03:40      2.02    8.75    1.00
  WS02006232WS02006231 CONDUIT    572.77     0  03:50      1.77    1.20    1.00
  WS02006234WS02006232 CONDUIT    571.93     0  03:50      1.49    1.16    1.00
  WS02006235WS02006234 CONDUIT    567.02     0  03:50      1.47    5.98    1.00
  WS02006238WS02006235 CONDUIT    438.55     0  03:31      1.48    0.98    1.00
  WS02006239WS02006238 CONDUIT    425.82     0  03:31      1.11    1.36    1.00
  WS02006240WS02006239 CONDUIT    425.72     0  03:31      1.28    1.34    1.00
  WS02006242WS02006240 CONDUIT    423.62     0  03:51      1.10    1.68    1.00
  WS02006243WS02006242 CONDUIT    423.12     0  03:51      1.35    0.90    1.00
  WS02006245WS02006243 CONDUIT    423.31     0  03:31      1.46    1.25    1.00
  WS02006247WS02006245 CONDUIT    423.83     0  03:31      1.44    3.36    1.00
  WS02006248WS02006247 CONDUIT    424.16     0  03:51      1.51    0.92    1.00
  WS02006249WS02006248 CONDUIT    423.62     0  03:51      1.48    2.32    1.00
  WS02006251WS02006249 CONDUIT    843.88     0  00:00      3.03    2.43    1.00
  WS02006252WS02006251 CONDUIT    478.35     0  00:00     24.79    1.76    1.00
  WS02006256WS02006235 CONDUIT    288.74     0  00:01      4.23    3.06    1.00
  WSF200WS02003060     CONDUIT    538.88     0  01:47      2.06    0.12    0.28
  YS02001580YS02001583 CONDUIT     77.56     0  01:16      0.57    0.30    1.00
  YS02001583YS02001586 CONDUIT    121.17     0  01:16      0.53    0.18    1.00
  YS02001586YS02001590 CONDUIT    318.61     0  01:45      1.26    0.56    1.00
  YS02001590YS02001593 CONDUIT    318.59     0  01:45      1.13    2.00    1.00
  YS02001593YS02001596 CONDUIT    317.98     0  01:34      1.67    0.50    1.00
  YS02001596YS02001600 CONDUIT    318.18     0  02:11      1.23    0.62    1.00
  YS02001600YS02001601 CONDUIT    318.14     0  02:11      1.13    0.55    1.00
  YS02001601YS02001602 CONDUIT    538.75     0  01:15      1.91    1.95    1.00
  YS02001602YS02001605 CONDUIT    539.03     0  01:15      1.91   11.41    1.00
  YS02001605YS02001607 CONDUIT    539.27     0  01:15      1.91    2.96    1.00
  YS02001607YS02001610 CONDUIT    548.58     0  01:16      0.75    0.52    1.00
  YS02001610YS02001613 CONDUIT    552.90     0  01:16      0.72    0.64    1.00
  YS02001613YS02001616 CONDUIT    558.55     0  01:16      0.75    0.48    1.00
  YS02001616YS02001619 CONDUIT    531.77     0  01:16      0.81    0.92    1.00
  YS02001619YS02001622 CONDUIT    911.03     0  01:24      1.68    1.34    1.00
  YS02001622YS02001625 CONDUIT    915.59     0  01:16      1.17    0.49    1.00
  YS02001625YS02001629 CONDUIT    915.45     0  01:16      1.18    0.44    1.00
  YS02001629YS02163301 CONDUIT    910.74     0  01:24      1.16    1.12    1.00
  YS02001633YS02163601 CONDUIT   1293.15     0  01:24      1.65    1.36    1.00
  YS02001641YS02001644 CONDUIT   1293.76     0  01:24      1.65    4.18    1.00
  YS02001644YS02001647 CONDUIT   1632.79     0  01:24      2.13    0.96    1.00
  YS02001647YS02001649 CONDUIT   1652.66     0  01:24      2.32    0.87    1.00
  YS02001649YS02001757 CONDUIT   1934.58     0  01:23      2.57    1.17    1.00
  YS02001652YS02001649 CONDUIT    401.50     0  01:51      1.25    0.20    1.00
  YS02001655YS02001652 CONDUIT    427.57     0  01:27      1.71    0.21    1.00
  YS02001658YS02001655 CONDUIT    487.32     0  01:42      1.90    0.21    1.00
  YS02001661YS02001658 CONDUIT    738.53     0  01:55      2.14    0.29    0.74
  YS02001664YS02001661 CONDUIT    329.74     0  01:31      1.98    0.10    0.44
  YS02001745YS02001748 CONDUIT    368.58     0  02:09      1.96    0.14    0.59
  YS02001748YS02001751 CONDUIT    300.80     0  01:58      1.63    0.15    0.96
  YS02001751YS02001754 CONDUIT    273.98     0  01:51      1.59    0.13    1.00
  YS02001754YS02001757 CONDUIT    275.11     0  01:23      1.00    0.11    1.00
  YS02001757CaochengTiaoxuchi CONDUIT   2673.10     0  01:30      3.88    1.16    1.00
  YS02001759YS02001757 CONDUIT    718.33     0  01:31      1.29    0.51    1.00
  YS02001762YS02001759 CONDUIT    437.25     0  01:31      0.72    0.50    1.00
  YS02001765YS02001762 CONDUIT    437.33     0  01:31      0.84    0.41    1.00
  YS02001767YS02001765 CONDUIT    437.13     0  01:31      0.94    0.55    1.00
  YS02001770YS02001767 CONDUIT    446.38     0  01:27      0.90    1.77    1.00
  YS02001774YS02001770 CONDUIT     86.76     0  01:25      0.67    0.06    1.00
  YS02001779YS02001774 CONDUIT     72.05     0  01:26      0.17    0.04    1.00
  YS02001783YS02001784 CONDUIT   1142.34     0  01:30      2.27    1.57    1.00
  YS02001784YS02001785 CONDUIT   1142.05     0  01:31      2.27    2.66    1.00
  YS02001786YS02001788 CONDUIT   1142.24     0  01:30      2.45    2.20    0.88
  YS02001788YS02001790 CONDUIT   1155.34     0  01:31      2.70    0.85    0.83
  YS02001790YS02001791 CONDUIT   1268.49     0  01:36      3.40    1.38    0.70
  YS02001791YS02001793 CONDUIT   1222.66     0  01:33      6.77    0.52    0.42
  YS02001793JiankangQianchi CONDUIT   1241.25     0  01:31      2.49    0.10    0.64
  YS02001882YS02001884 CONDUIT     77.44     0  01:14      0.40    0.09    1.00
  YS02001884YS02001887 CONDUIT    138.04     0  01:13      0.36    0.18    1.00
  YS02001887YS02001890 CONDUIT    294.75     0  01:20      0.45    0.50    1.00
  YS02001890YS02001895 CONDUIT    295.03     0  01:19      0.44    0.14    1.00
  YS02001895YS02001898 CONDUIT    298.53     0  01:20      0.72    0.52    1.00
  YS02001898YS02001901 CONDUIT    294.57     0  01:30      0.72    0.19    1.00
  YS02001901YS02001904 CONDUIT    295.81     0  01:30      0.40    0.46    1.00
  YS02001904YS02001907 CONDUIT    296.01     0  01:30      0.38    0.10    1.00
  YS02001907YS02006553 CONDUIT    777.82     0  01:43      0.86    0.91    1.00
  YS02001910YS02001907 CONDUIT    657.11     0  01:27      0.84    0.37    1.00
  YS02001915YS02001910 CONDUIT    657.14     0  01:27      1.25    0.33    1.00
  YS02001918YS02001915 CONDUIT    271.45     0  01:27      0.45    0.15    1.00
  YS02001920YS02001918 CONDUIT    271.40     0  01:27      0.70    0.26    1.00
  YS02001923YS02001920 CONDUIT    271.37     0  01:27      0.80    0.12    1.00
  YS02001926YS02001923 CONDUIT    253.72     0  01:27      0.92    0.36    0.91
  YS02001929YS02001926 CONDUIT    241.65     0  01:27      1.03    0.11    0.81
  YS02006553YS02006556 CONDUIT    777.64     0  01:45      0.99    0.67    1.00
  YS02006556YS02006558 CONDUIT    778.07     0  01:43      0.99    0.61    1.00
  YS02006558YS02006561 CONDUIT   1142.17     0  01:31      4.04    2.52    1.00
  YS02006561YS02001783 CONDUIT   1142.17     0  01:30      2.27    0.59    1.00
  YS02163301YS02001633 CONDUIT    911.08     0  01:24      1.16    0.86    1.00
  YS02163601YS02164001 CONDUIT   1292.73     0  01:24      1.65    1.15    1.00
  YS02164001YS02001641 CONDUIT   1293.31     0  01:24      1.65    1.77    1.00
  CC-R1                PUMP       683.00     0  00:00              1.00
  CC-R2                PUMP       683.00     0  00:00              1.00
  CC-S1                PUMP       200.00     0  00:00              1.00
  CC-S2                PUMP       200.00     0  00:00              1.00
  JK-R1                PUMP      1000.00     0  00:00              1.00
  JK-R2                PUMP      1000.00     0  01:45              1.00
  JK-S                 PUMP       300.00     0  00:00              1.00
  
  
  ***************************
  Flow Classification Summary
  ***************************
  
  -------------------------------------------------------------------------------------
                      Adjusted    ---------- Fraction of Time in Flow Class ---------- 
                       /Actual         Up    Down  Sub   Sup   Up    Down  Norm  Inlet 
  Conduit               Length    Dry  Dry   Dry   Crit  Crit  Crit  Crit  Ltd   Ctrl  
  -------------------------------------------------------------------------------------
  1                       1.00   0.00  0.00  0.00  0.00  1.00  0.00  0.00  0.26  0.00
  WS02003060WS02003069    1.00   0.00  0.00  0.00  0.95  0.05  0.00  0.00  0.60  0.00
  WS02003066WSF200        1.00   0.04  0.00  0.00  0.00  0.96  0.00  0.00  0.92  0.00
  WS02003067WS02003066    1.00   0.02  0.01  0.00  0.97  0.00  0.00  0.00  0.00  0.00
  WS02003069WS02003072    1.00   0.00  0.00  0.00  1.00  0.00  0.00  0.00  0.63  0.00
  WS02003072WS02003073    1.00   0.00  0.00  0.00  0.00  0.00  0.00  1.00  0.00  0.00
  WS02004401WS02004402    1.00   0.00  0.00  0.00  1.00  0.00  0.00  0.00  0.00  0.00
  WS02004402WS02004403    1.00   0.00  0.00  0.00  1.00  0.00  0.00  0.00  0.00  0.00
  WS02004403WS02004404    1.00   0.00  0.00  0.00  1.00  0.00  0.00  0.00  0.00  0.00
  WS02004404WS02004405    1.00   0.00  0.00  0.00  1.00  0.00  0.00  0.00  0.01  0.00
  WS02004405WS02004406    1.00   0.00  0.00  0.00  1.00  0.00  0.00  0.00  0.00  0.00
  WS02004406WS02004407    1.00   0.00  0.00  0.00  1.00  0.00  0.00  0.00  0.00  0.00
  WS02004407WS02004409    1.00   0.00  0.00  0.00  0.98  0.01  0.00  0.00  0.99  0.00
  WS02004409WS02004410    1.00   0.00  0.00  0.00  1.00  0.00  0.00  0.00  0.00  0.00
  WS02004410WS02004411    1.00   0.00  0.00  0.00  1.00  0.00  0.00  0.00  0.00  0.00
  WS02004411WS02004412    1.00   0.00  0.00  0.00  0.99  0.00  0.00  0.00  0.00  0.00
  WS02004412WS02004413    1.00   0.00  0.00  0.00  0.99  0.01  0.00  0.00  0.00  0.00
  WS02004413WS02003067    1.00   0.01  0.01  0.00  0.00  0.00  0.98  0.00  0.00  0.00
  WS02006109WS02006110    1.00   0.00  0.00  0.00  1.00  0.00  0.00  0.00  0.00  0.00
  WS02006110WS02006113    1.00   0.00  0.00  0.00  1.00  0.00  0.00  0.00  0.00  0.00
  WS02006111WS02006112    1.00   0.00  0.00  0.00  1.00  0.00  0.00  0.00  1.00  0.00
  WS02006112WS02006115    1.00   0.00  0.00  0.00  1.00  0.00  0.00  0.00  0.00  0.00
  WS02006113WS02006111    1.00   0.00  0.00  0.00  0.00  1.00  0.00  0.00  0.15  0.00
  WS02006115WS02006116    1.00   0.00  0.00  0.00  1.00  0.00  0.00  0.00  0.00  0.00
  WS02006116WS02004401    1.00   0.00  0.00  0.00  1.00  0.00  0.00  0.00  0.00  0.00
  WS02006228WS02006109    1.00   0.00  0.00  0.00  1.00  0.00  0.00  0.00  0.00  0.00
  WS02006229WS02006228    1.00   0.00  0.00  0.00  1.00  0.00  0.00  0.00  0.00  0.00
  WS02006230WS02006229    1.00   0.00  0.00  0.00  1.00  0.00  0.00  0.00  0.00  0.00
  WS02006231WS02006230    1.00   0.00  0.00  0.00  0.50  0.00  0.50  0.00  0.00  0.00
  WS02006232WS02006231    1.00   0.00  0.00  0.00  1.00  0.00  0.00  0.00  0.00  0.00
  WS02006234WS02006232    1.00   0.00  0.00  0.00  1.00  0.00  0.00  0.00  0.01  0.00
  WS02006235WS02006234    1.00   0.00  0.00  0.00  0.96  0.00  0.04  0.00  0.00  0.00
  WS02006238WS02006235    1.00   0.00  0.00  0.00  1.00  0.00  0.00  0.00  0.00  0.00
  WS02006239WS02006238    1.00   0.00  0.00  0.00  1.00  0.00  0.00  0.00  0.06  0.00
  WS02006240WS02006239    1.00   0.00  0.00  0.00  0.85  0.00  0.00  0.15  0.01  0.00
  WS02006242WS02006240    1.00   0.00  0.00  0.00  0.99  0.00  0.01  0.00  0.00  0.00
  WS02006243WS02006242    1.00   0.00  0.00  0.00  0.98  0.00  0.00  0.01  0.55  0.00
  WS02006245WS02006243    1.00   0.00  0.00  0.00  0.95  0.00  0.00  0.05  0.00  0.00
  WS02006247WS02006245    1.00   0.00  0.00  0.00  0.98  0.00  0.00  0.02  0.00  0.00
  WS02006248WS02006247    1.00   0.00  0.00  0.00  0.99  0.00  0.00  0.01  0.49  0.00
  WS02006249WS02006248    1.00   0.00  0.00  0.00  0.69  0.00  0.31  0.00  0.00  0.00
  WS02006251WS02006249    1.00   0.00  0.00  0.00  1.00  0.00  0.00  0.00  0.37  0.00
  WS02006252WS02006251    1.00   0.00  0.20  0.00  0.05  0.00  0.75  0.00  0.00  0.00
  WS02006256WS02006235    1.00   0.00  0.00  0.00  1.00  0.00  0.00  0.00  0.00  0.00
  WSF200WS02003060        1.00   0.00  0.04  0.00  0.21  0.76  0.00  0.00  0.57  0.00
  YS02001580YS02001583    1.00   0.15  0.43  0.00  0.43  0.00  0.00  0.00  0.62  0.00
  YS02001583YS02001586    1.00   0.24  0.24  0.00  0.52  0.00  0.00  0.00  0.62  0.00
  YS02001586YS02001590    1.00   0.11  0.00  0.00  0.65  0.03  0.00  0.21  0.27  0.00
  YS02001590YS02001593    1.00   0.11  0.00  0.00  0.35  0.00  0.53  0.00  0.00  0.00
  YS02001593YS02001596    1.00   0.11  0.00  0.00  0.36  0.01  0.00  0.52  0.01  0.00
  YS02001596YS02001600    1.00   0.11  0.00  0.00  0.41  0.01  0.00  0.47  0.03  0.00
  YS02001600YS02001601    1.00   0.11  0.00  0.00  0.89  0.00  0.00  0.00  0.55  0.00
  YS02001601YS02001602    1.00   0.11  0.00  0.00  0.89  0.00  0.00  0.00  0.00  0.00
  YS02001602YS02001605    1.00   0.11  0.00  0.00  0.89  0.00  0.00  0.00  0.00  0.00
  YS02001605YS02001607    1.00   0.11  0.00  0.00  0.89  0.00  0.00  0.00  0.00  0.00
  YS02001607YS02001610    1.00   0.11  0.00  0.00  0.89  0.00  0.00  0.00  0.00  0.00
  YS02001610YS02001613    1.00   0.11  0.00  0.00  0.89  0.00  0.00  0.00  0.00  0.00
  YS02001613YS02001616    1.00   0.11  0.00  0.00  0.89  0.00  0.00  0.00  0.00  0.00
  YS02001616YS02001619    1.00   0.11  0.00  0.00  0.89  0.00  0.00  0.00  0.00  0.00
  YS02001619YS02001622    1.00   0.11  0.00  0.00  0.88  0.01  0.00  0.00  0.26  0.00
  YS02001622YS02001625    1.00   0.11  0.00  0.00  0.89  0.00  0.00  0.00  0.01  0.00
  YS02001625YS02001629    1.00   0.11  0.02  0.00  0.38  0.00  0.49  0.00  0.00  0.00
  YS02001629YS02163301    1.00   0.11  0.00  0.00  0.89  0.00  0.00  0.00  0.00  0.00
  YS02001633YS02163601    1.00   0.11  0.00  0.00  0.89  0.00  0.00  0.00  0.00  0.00
  YS02001641YS02001644    1.00   0.11  0.00  0.00  0.89  0.00  0.00  0.00  0.00  0.00
  YS02001644YS02001647    1.00   0.11  0.00  0.00  0.88  0.00  0.00  0.00  0.00  0.00
  YS02001647YS02001649    1.00   0.11  0.00  0.00  0.61  0.27  0.00  0.00  0.56  0.00
  YS02001649YS02001757    1.00   0.00  0.11  0.00  0.59  0.30  0.00  0.00  0.11  0.00
  YS02001652YS02001649    1.00   0.11  0.00  0.00  0.87  0.02  0.00  0.00  0.54  0.00
  YS02001655YS02001652    1.00   0.11  0.00  0.00  0.41  0.00  0.00  0.48  0.03  0.00
  YS02001658YS02001655    1.00   0.11  0.00  0.00  0.77  0.11  0.00  0.00  0.60  0.00
  YS02001661YS02001658    1.00   0.11  0.00  0.00  0.52  0.37  0.00  0.00  0.63  0.00
  YS02001664YS02001661    1.00   0.11  0.00  0.00  0.73  0.16  0.00  0.00  0.87  0.00
  YS02001745YS02001748    1.00   0.11  0.00  0.00  0.28  0.00  0.00  0.61  0.06  0.00
  YS02001748YS02001751    1.00   0.11  0.00  0.00  0.79  0.10  0.00  0.00  0.59  0.00
  YS02001751YS02001754    1.00   0.11  0.00  0.00  0.40  0.01  0.00  0.48  0.03  0.00
  YS02001754YS02001757    1.00   0.00  0.11  0.00  0.88  0.01  0.00  0.00  0.56  0.00
  YS02001757CaochengTiaoxuchi    1.00   0.00  0.00  0.00  0.93  0.07  0.00  0.00  0.67  0.00
  YS02001759YS02001757    1.00   0.00  0.11  0.00  0.88  0.01  0.00  0.00  0.52  0.00
  YS02001762YS02001759    1.00   0.11  0.00  0.00  0.89  0.00  0.00  0.00  0.00  0.00
  YS02001765YS02001762    1.00   0.11  0.00  0.00  0.89  0.00  0.00  0.00  0.53  0.00
  YS02001767YS02001765    1.00   0.11  0.00  0.00  0.89  0.00  0.00  0.00  0.00  0.00
  YS02001770YS02001767    1.00   0.11  0.00  0.00  0.89  0.00  0.00  0.00  0.00  0.00
  YS02001774YS02001770    1.00   0.11  0.00  0.00  0.77  0.00  0.11  0.00  0.00  0.00
  YS02001779YS02001774    1.00   0.11  0.32  0.00  0.57  0.00  0.00  0.00  0.55  0.00
  YS02001783YS02001784    1.00   0.12  0.00  0.00  0.87  0.01  0.00  0.00  0.54  0.00
  YS02001784YS02001785    1.00   0.13  0.00  0.00  0.87  0.00  0.00  0.00  0.35  0.00
  YS02001786YS02001788    1.00   0.13  0.00  0.00  0.66  0.21  0.00  0.00  0.00  0.00
  YS02001788YS02001790    1.00   0.14  0.00  0.00  0.19  0.67  0.00  0.00  0.60  0.00
  YS02001790YS02001791    1.00   0.14  0.00  0.00  0.00  0.86  0.00  0.00  0.13  0.00
  YS02001791YS02001793    1.00   0.14  0.00  0.00  0.00  0.86  0.00  0.00  0.01  0.00
  YS02001793JiankangQianchi    1.00   0.00  0.14  0.00  0.77  0.09  0.00  0.00  0.84  0.00
  YS02001882YS02001884    1.00   0.11  0.00  0.00  0.89  0.00  0.00  0.00  0.00  0.00
  YS02001884YS02001887    1.00   0.11  0.00  0.00  0.89  0.00  0.00  0.00  0.00  0.00
  YS02001887YS02001890    1.00   0.11  0.00  0.00  0.89  0.00  0.00  0.00  0.00  0.00
  YS02001890YS02001895    1.00   0.11  0.00  0.00  0.89  0.00  0.00  0.00  0.00  0.00
  YS02001895YS02001898    1.00   0.11  0.00  0.00  0.86  0.00  0.02  0.00  0.00  0.00
  YS02001898YS02001901    1.00   0.12  0.00  0.00  0.88  0.01  0.00  0.00  0.00  0.00
  YS02001901YS02001904    1.00   0.12  0.00  0.00  0.88  0.00  0.00  0.00  0.00  0.00
  YS02001904YS02001907    1.00   0.11  0.01  0.00  0.88  0.00  0.00  0.00  0.00  0.00
  YS02001907YS02006553    1.00   0.11  0.00  0.00  0.89  0.00  0.00  0.00  0.00  0.00
  YS02001910YS02001907    1.00   0.11  0.00  0.00  0.89  0.00  0.00  0.00  0.00  0.00
  YS02001915YS02001910    1.00   0.11  0.00  0.00  0.88  0.01  0.00  0.00  0.00  0.00
  YS02001918YS02001915    1.00   0.11  0.01  0.00  0.88  0.00  0.00  0.00  0.63  0.00
  YS02001920YS02001918    1.00   0.11  0.00  0.00  0.88  0.00  0.00  0.00  0.00  0.00
  YS02001923YS02001920    1.00   0.11  0.00  0.00  0.88  0.00  0.00  0.00  0.69  0.00
  YS02001926YS02001923    1.00   0.11  0.00  0.00  0.19  0.00  0.69  0.00  0.00  0.00
  YS02001929YS02001926    1.00   0.11  0.00  0.00  0.89  0.00  0.00  0.00  0.75  0.00
  YS02006553YS02006556    1.00   0.11  0.00  0.00  0.89  0.00  0.00  0.00  0.00  0.00
  YS02006556YS02006558    1.00   0.11  0.00  0.00  0.89  0.00  0.00  0.00  0.00  0.00
  YS02006558YS02006561    1.00   0.12  0.00  0.00  0.16  0.71  0.00  0.00  0.12  0.00
  YS02006561YS02001783    1.00   0.12  0.00  0.00  0.34  0.53  0.00  0.00  0.61  0.00
  YS02163301YS02001633    1.00   0.11  0.00  0.00  0.89  0.00  0.00  0.00  0.00  0.00
  YS02163601YS02164001    1.00   0.11  0.00  0.00  0.89  0.00  0.00  0.00  0.00  0.00
  YS02164001YS02001641    1.00   0.11  0.00  0.00  0.89  0.00  0.00  0.00  0.00  0.00
  
  
  *************************
  Conduit Surcharge Summary
  *************************
  
  ----------------------------------------------------------------------------
                                                           Hours        Hours 
                         --------- Hours Full --------   Above Full   Capacity
  Conduit                Both Ends  Upstream  Dnstream   Normal Flow   Limited
  ----------------------------------------------------------------------------
  WS02003072WS02003073        0.01      0.01      0.01      0.34         0.01
  WS02004401WS02004402        0.01      0.01      0.01      0.01         0.01
  WS02004402WS02004403        0.01      0.01      0.01      0.02         0.01
  WS02004403WS02004404        0.01      0.01      0.01      0.01         0.01
  WS02004404WS02004405        0.01      0.01      0.01      3.70         0.01
  WS02004405WS02004406        0.01      0.01      0.01      0.26         0.01
  WS02006109WS02006110        0.27      0.27      2.82      0.29         0.01
  WS02006110WS02006113        0.01      0.01      2.79      0.01         0.01
  WS02006111WS02006112        0.01      0.01      3.03      0.01         0.01
  WS02006112WS02006115        0.01      0.01      0.30      0.01         0.01
  WS02006113WS02006111        0.01      0.01      0.01      0.01         0.01
  WS02006115WS02006116        0.01      0.01      0.01      0.01         0.01
  WS02006116WS02004401        0.01      0.01      0.01      0.01         0.01
  WS02006228WS02006109        2.74      2.81      2.75      3.25         2.74
  WS02006229WS02006228        2.73      2.76      2.73      3.07         2.71
  WS02006230WS02006229        2.88      3.01      2.89      4.27         2.88
  WS02006231WS02006230        0.27      0.27      0.32      3.57         0.01
  WS02006232WS02006231        0.30      0.30      2.82      0.34         0.01
  WS02006234WS02006232        2.71      2.71      2.82      0.32         0.36
  WS02006235WS02006234        0.76      0.77      2.76      3.43         0.01
  WS02006238WS02006235        2.77      2.77      2.83      0.01         0.01
  WS02006239WS02006238        2.78      2.81      2.79      2.72         2.46
  WS02006240WS02006239        2.74      2.76      2.75      2.70         2.40
  WS02006242WS02006240        2.74      2.74      2.85      2.89         0.01
  WS02006243WS02006242        2.56      2.56      2.81      0.01         0.03
  WS02006245WS02006243        2.54      2.55      2.55      2.44         2.29
  WS02006247WS02006245        2.54      2.57      2.54      3.33         2.54
  WS02006248WS02006247        2.54      2.54      2.55      0.01         0.04
  WS02006249WS02006248        2.53      2.53      2.54      3.30         0.01
  WS02006251WS02006249        2.53      2.56      2.54      2.77         2.46
  WS02006252WS02006251        2.81      2.81      3.02      2.82         0.01
  WS02006256WS02006235        3.42      3.49      7.43      0.67         0.04
  YS02001580YS02001583        1.40      1.40      1.64      0.01         0.01
  YS02001583YS02001586        1.44      1.44      1.78      0.01         0.01
  YS02001586YS02001590        1.79      1.79      1.84      0.01         0.01
  YS02001590YS02001593        1.84      1.84      1.86      1.83         0.01
  YS02001593YS02001596        1.85      1.85      1.92      0.01         0.01
  YS02001596YS02001600        1.95      1.95      2.00      0.01         0.01
  YS02001600YS02001601        2.03      2.03      2.18      0.01         0.01
  YS02001601YS02001602        2.13      2.13      2.20      2.00         0.01
  YS02001602YS02001605        2.10      2.10      2.13      2.70         0.01
  YS02001605YS02001607        2.08      2.10      2.09      2.12         2.05
  YS02001607YS02001610        1.83      1.83      1.85      0.01         0.01
  YS02001610YS02001613        1.83      1.83      1.85      0.01         0.01
  YS02001613YS02001616        1.80      1.80      1.83      0.01         0.01
  YS02001616YS02001619        1.79      1.79      1.80      0.01         0.01
  YS02001619YS02001622        1.79      1.79      1.79      1.79         1.45
  YS02001622YS02001625        1.79      1.79      1.92      0.01         0.01
  YS02001625YS02001629        1.75      1.75      1.92      0.01         0.01
  YS02001629YS02163301        1.92      1.92      1.93      0.20         0.34
  YS02001633YS02163601        1.95      1.95      1.98      0.69         0.98
  YS02001641YS02001644        1.91      1.93      1.91      2.23         1.89
  YS02001644YS02001647        1.65      1.65      1.91      0.01         0.01
  YS02001647YS02001649        1.65      1.65      1.78      0.01         0.01
  YS02001649YS02001757        1.76      1.78      1.83      0.42         0.40
  YS02001652YS02001649        1.60      1.60      1.78      0.01         0.01
  YS02001655YS02001652        0.98      0.98      1.58      0.01         0.01
  YS02001658YS02001655        0.07      0.07      0.98      0.01         0.01
  YS02001661YS02001658        0.01      0.01      0.07      0.01         0.01
  YS02001748YS02001751        0.01      0.01      0.36      0.01         0.01
  YS02001751YS02001754        0.35      0.35      1.47      0.01         0.01
  YS02001754YS02001757        1.53      1.53      1.83      0.01         0.01
  YS02001757CaochengTiaoxuchi        1.78      1.83      2.35      0.58         0.42
  YS02001759YS02001757        1.73      1.73      1.83      0.01         0.01
  YS02001762YS02001759        1.70      1.70      1.73      0.01         0.01
  YS02001765YS02001762        1.66      1.66      1.70      0.01         0.01
  YS02001767YS02001765        1.63      1.63      1.66      0.01         0.01
  YS02001770YS02001767        1.62      1.63      1.63      1.33         0.98
  YS02001774YS02001770        1.60      1.60      1.69      0.01         0.01
  YS02001779YS02001774        1.46      1.46      1.69      0.01         0.01
  YS02001783YS02001784        1.18      1.24      1.18      1.55         1.18
  YS02001784YS02001785        0.83      1.18      0.83      1.88         0.83
  YS02001786YS02001788        0.01      0.83      0.01      1.81         0.01
  YS02001790YS02001791        0.01      0.01      0.01      1.12         0.01
  YS02001793JiankangQianchi        0.01      0.01      6.49      0.01         0.01
  YS02001882YS02001884        1.01      1.01      1.07      0.01         0.01
  YS02001884YS02001887        1.19      1.19      1.21      0.01         0.01
  YS02001887YS02001890        1.25      1.25      1.27      0.01         0.01
  YS02001890YS02001895        0.98      0.98      1.30      0.01         0.01
  YS02001895YS02001898        0.96      0.96      0.98      0.01         0.01
  YS02001898YS02001901        0.99      0.99      1.18      0.01         0.01
  YS02001901YS02001904        1.15      1.15      1.18      0.01         0.01
  YS02001904YS02001907        1.15      1.15      1.78      0.01         0.01
  YS02001907YS02006553        1.88      1.88      1.91      0.01         0.01
  YS02001910YS02001907        1.30      1.30      1.76      0.01         0.01
  YS02001915YS02001910        1.02      1.02      1.30      0.01         0.01
  YS02001918YS02001915        0.80      0.80      1.02      0.01         0.01
  YS02001920YS02001918        0.80      0.80      0.83      0.01         0.01
  YS02001923YS02001920        0.41      0.41      0.83      0.01         0.01
  YS02006553YS02006556        1.49      1.49      1.79      0.01         0.01
  YS02006556YS02006558        1.64      1.64      1.80      0.01         0.01
  YS02006558YS02006561        0.87      1.46      0.87      1.85         0.87
  YS02006561YS02001783        0.72      0.72      1.24      0.01         0.01
  YS02163301YS02001633        1.93      1.93      1.96      0.01         0.01
  YS02163601YS02164001        1.93      1.93      1.98      0.23         0.01
  YS02164001YS02001641        1.92      1.93      1.93      1.86         1.74
  
  
  ***************
  Pumping Summary
  ***************
  
  ---------------------------------------------------------------------------------------------------------
                                                  Min       Avg       Max     Total     Power    % Time Off
                        Percent   Number of      Flow      Flow      Flow    Volume     Usage    Pump Curve
  Pump                 Utilized   Start-Ups       LPS       LPS       LPS  10^6 ltr     Kw-hr    Low   High
  ---------------------------------------------------------------------------------------------------------
  CC-R1                   34.79          15      0.00    683.00    683.00     6.843    129.18    0.0   20.2
  CC-R2                   28.81          14      0.00    683.00    683.00     5.668    108.47    0.0   15.4
  CC-S1                   37.79          11      0.00    200.00    200.00     2.176     11.37    0.0    0.0
  CC-S2                   43.40         230      0.00    200.00    200.00     2.500     13.73    0.0    0.0
  JK-R1                   13.45         188      0.00   1000.00   1000.00     3.872     27.12    0.0    0.0
  JK-R2                    8.21         172      0.00   1000.00   1000.00     2.365     13.80    0.0    0.0
  JK-S                     8.69          48      0.00    300.00    300.00     0.751     13.09    0.0    0.0
  

  Analysis begun on:  Thu Sep  7 18:10:06 2023
  Analysis ended on:  Thu Sep  7 18:10:43 2023
  Total elapsed time: 00:00:37