
  OWA STORM WATER MANAGEMENT MODEL - VERSION v5.1.14 (OWA 2022-07-31)
  --------------------------------------------------------------

  WARNING 04: minimum elevation drop used for Conduit WS02004404WS02004405
  WARNING 03: negative offset ignored for Link YS02001904YS02001907
  
  *********************************************************
  NOTE: The summary statistics displayed in this report are
  based on results found at every computational time step,  
  not just on results from each reporting time step.
  *********************************************************
  
  ****************
  Analysis Options
  ****************
  Flow Units ............... LPS
  Process Models:
    Rainfall/Runoff ........ YES
    RDII ................... NO
    Snowmelt ............... NO
    Groundwater ............ NO
    Flow Routing ........... YES
    Ponding Allowed ........ NO
    Water Quality .......... NO
  Infiltration Method ...... HORTON
  Flow Routing Method ...... DYNWAVE
  Surcharge Method ......... EXTRAN
  Starting Date ............ 08/28/2015 08:00:00
  Ending Date .............. 08/28/2015 16:00:00
  Antecedent Dry Days ...... 8.0
  Report Time Step ......... 00:01:00
  Wet Time Step ............ 00:01:00
  Dry Time Step ............ 00:01:00
  Routing Time Step ........ 30.00 sec
  Variable Time Step ....... YES
  Maximum Trials ........... 8
  Number of Threads ........ 4
  Head Tolerance ........... 0.001500 m
  
  
  **************************        Volume         Depth
  Runoff Quantity Continuity     hectare-m            mm
  **************************     ---------       -------
  Total Precipitation ......         7.286       120.274
  Evaporation Loss .........         0.000         0.000
  Infiltration Loss ........         0.256         4.221
  Surface Runoff ...........         6.970       115.066
  Final Storage ............         0.061         1.009
  Continuity Error (%) .....        -0.019
  
  
  **************************        Volume        Volume
  Flow Routing Continuity        hectare-m      10^6 ltr
  **************************     ---------     ---------
  Dry Weather Inflow .......         0.630         6.296
  Wet Weather Inflow .......         6.969        69.690
  Groundwater Inflow .......         0.000         0.000
  RDII Inflow ..............         0.000         0.000
  External Inflow ..........         0.105         1.045
  External Outflow .........         3.832        38.324
  Flooding Loss ............         3.865        38.652
  Evaporation Loss .........         0.000         0.000
  Exfiltration Loss ........         0.000         0.000
  Initial Stored Volume ....         0.303         3.031
  Final Stored Volume ......         0.321         3.210
  Continuity Error (%) .....        -0.155
  
  
  *************************
  Highest Continuity Errors
  *************************
  Node YS02001583 (-11.75%)
  Node YS02001884 (4.38%)
  Node YS02001774 (1.41%)
  
  
  ***************************
  Time-Step Critical Elements
  ***************************
  Link WS02006280WS02006229 (41.97%)
  Link YS02001791YS02001793 (20.23%)
  Link WS02006252WS02006251 (10.26%)
  Link YS02006556YS02006558 (5.57%)
  Link WS02006238WS02006235 (5.41%)
  
  
  ********************************
  Highest Flow Instability Indexes
  ********************************
  Link WS02006229WS02006228 (34)
  Link WS02006113WS02006111 (33)
  Link WS02006238WS02006235 (32)
  Link WS02004404WS02004405 (31)
  Link WS02006252WS02006251 (31)
  
  
  *************************
  Routing Time Step Summary
  *************************
  Minimum Time Step           :     0.01 sec
  Average Time Step           :     2.43 sec
  Maximum Time Step           :     6.46 sec
  Percent in Steady State     :     0.00
  Average Iterations per Step :     4.00
  Percent Not Converging      :    19.10
  
  
  ***************************
  Subcatchment Runoff Summary
  ***************************
  
  ------------------------------------------------------------------------------------------------------------------------------
                            Total      Total      Total      Total     Imperv       Perv      Total       Total     Peak  Runoff
                           Precip      Runon       Evap      Infil     Runoff     Runoff     Runoff      Runoff   Runoff   Coeff
  Subcatchment                 mm         mm         mm         mm         mm         mm         mm    10^6 ltr      LPS
  ------------------------------------------------------------------------------------------------------------------------------
  sub0                     120.27       0.00       0.00       1.05     110.63       7.37     118.00        0.10    22.60   0.981
  sub1                     120.27       0.00       0.00       1.82     105.80      11.41     117.22        0.78   184.04   0.975
  sub10                    120.27       0.00       0.00       1.28     109.38       8.34     117.72        1.30   306.31   0.979
  sub11                    120.27       0.00       0.00       1.26     109.40       8.37     117.77        1.37   323.33   0.979
  sub12                    120.27       0.00       0.00       2.04     103.48      13.60     117.08        1.02   242.93   0.973
  sub14                    120.27       0.00       0.00       1.44     108.20       9.39     117.59        1.12   264.53   0.978
  sub15                    120.27       0.00       0.00       5.62      83.23      30.47     113.69        1.96   455.56   0.945
  sub16                    120.27       0.00       0.00       5.83      79.69      33.87     113.56        1.19   282.42   0.944
  sub17                    120.27       0.00       0.00       5.68      80.88      32.81     113.68        0.98   231.28   0.945
  sub2                     120.27       0.00       0.00       7.97      74.87      36.53     111.40        1.04   225.82   0.926
  sub22                    120.27       0.00       0.00       8.49      67.78      43.23     111.02        7.01  1586.85   0.923
  sub23                    120.27       0.00       0.00       6.94      74.92      37.56     112.48        5.37  1248.09   0.935
  sub3                     120.27       0.00       0.00       8.66      74.83      35.84     110.67        2.49   518.54   0.920
  sub4                     120.27       0.00       0.00       2.02     105.62      11.21     116.83        2.44   553.78   0.971
  sub5                     120.27       0.00       0.00       1.11     110.56       7.31     117.87        1.34   314.52   0.980
  sub60                    120.27       0.00       0.00       1.93     104.65      12.51     117.16        1.54   364.86   0.974
  sub61                    120.27       0.00       0.00       2.80      98.71      17.65     116.36        2.14   507.66   0.967
  sub62                    120.27       0.00       0.00       1.28     109.37       8.34     117.71        3.23   760.35   0.979
  sub63                    120.27       0.00       0.00       5.17      84.44      29.71     114.15        2.59   613.09   0.949
  sub64                    120.27       0.00       0.00       2.61     101.03      15.43     116.46        2.80   658.65   0.968
  sub65                    120.27       0.00       0.00       2.26     103.39      13.37     116.76        3.21   754.23   0.971
  sub66                    120.27       0.00       0.00       6.34      84.32      28.54     112.86        5.26  1146.62   0.938
  sub67                    120.27       0.00       0.00       1.23     109.43       8.40     117.82        2.19   518.26   0.980
  sub68                    120.27       0.00       0.00       2.32     102.26      14.52     116.78        3.21   761.56   0.971
  sub69                    120.27       0.00       0.00       2.11     102.12      15.94     118.06        4.37  1012.02   0.982
  sub7                     120.27       0.00       0.00       1.41     108.22       9.41     117.64        0.40    93.77   0.978
  sub70                    120.27       0.00       0.00       6.90      79.21      34.00     113.21        3.27   673.09   0.941
  sub71                    120.27       0.00       0.00       1.32     109.33       8.30     117.63        3.08   720.92   0.978
  sub72                    120.27       0.00       0.00       1.18     110.45       7.24     117.69        1.62   374.48   0.979
  sub8                     120.27       0.00       0.00       1.43     108.21       9.40     117.61        0.75   177.64   0.978
  sub9                     120.27       0.00       0.00       1.43     108.21       9.39     117.60        0.57   133.68   0.978
  
  
  ******************
  Node Depth Summary
  ******************
  
  ---------------------------------------------------------------------------------
                                 Average  Maximum  Maximum  Time of Max    Reported
                                   Depth    Depth      HGL   Occurrence   Max Depth
  Node                 Type       Meters   Meters   Meters  days hr:min      Meters
  ---------------------------------------------------------------------------------
  HS02004478           JUNCTION     0.45     1.56    10.79     0  01:31        1.56
  HS02004479           JUNCTION     0.53     1.68    10.88     0  01:12        1.66
  HS02004480           JUNCTION     0.50     1.65    10.89     0  01:12        1.62
  HS02004770           JUNCTION     0.48     1.42    11.25     0  01:08        1.42
  HS02004777           JUNCTION     0.50     1.48    11.28     0  01:08        1.48
  HS02004785           JUNCTION     0.39     1.49    11.39     0  01:08        1.41
  HS02004788           JUNCTION     0.36     1.42    11.32     0  01:08        1.38
  HS02004792           JUNCTION     0.46     1.60    11.12     0  01:07        1.60
  HS02004799           JUNCTION     0.58     1.76    10.97     0  01:09        1.76
  HS02004802           JUNCTION     0.55     1.75    10.88     0  01:12        1.74
  HS02004807           JUNCTION     0.53     1.88    11.05     0  01:12        1.84
  HS02004817           JUNCTION     0.83     2.34    11.19     0  01:12        2.24
  HS02004824           JUNCTION     0.39     1.91    11.32     0  01:12        1.74
  HS02004830           JUNCTION     0.38     1.94    11.40     0  01:12        1.67
  HS02004837           JUNCTION     0.33     1.89    11.47     0  01:12        1.56
  HS02004842           JUNCTION     0.62     2.22    11.49     0  01:12        2.11
  HS02004848           JUNCTION     0.30     2.07    11.67     0  01:12        2.07
  HS02004852           JUNCTION     0.32     2.12    11.63     0  01:12        2.12
  HS02004856           JUNCTION     0.37     2.07    11.50     0  01:11        2.07
  HS02004862           JUNCTION     0.33     2.00    11.38     0  01:12        2.00
  HS02004870           JUNCTION     0.33     2.06    11.34     0  01:12        2.06
  HS02004876           JUNCTION     0.41     2.03    11.06     0  01:12        1.86
  HS02004881           JUNCTION     0.34     1.76    10.79     0  01:12        1.51
  HS02004901           JUNCTION     0.48     1.42    11.24     0  01:08        1.42
  WS02001211           JUNCTION     0.66     0.87     5.71     0  01:18        0.86
  WS02001212           JUNCTION     0.41     0.65     5.71     0  01:17        0.64
  WS02001213           JUNCTION     0.64     0.98     5.74     0  01:17        0.87
  WS02003059           JUNCTION     0.70     0.98     5.67     0  01:19        0.98
  WS02003060           JUNCTION     0.43     0.70     5.63     0  01:20        0.69
  WS02003066           JUNCTION     0.26     0.46     6.02     0  01:12        0.45
  WS02003067           JUNCTION     0.59     0.95     6.27     0  01:12        0.90
  WS02003069           JUNCTION     0.49     0.78     5.37     0  01:21        0.78
  WS02003072           JUNCTION     0.54     0.82     5.19     0  01:19        0.81
  WS02003073           JUNCTION     0.33     0.52     4.58     0  01:20        0.52
  WS02004138           JUNCTION     0.13     0.14     7.39     0  00:29        0.14
  WS02004139           JUNCTION     0.60     0.79     5.70     0  01:16        0.78
  WS02004401           JUNCTION     0.93     2.66     8.66     0  01:09        1.97
  WS02004402           JUNCTION     0.94     2.74     8.70     0  01:09        1.96
  WS02004403           JUNCTION     0.93     2.92     8.85     0  01:09        1.82
  WS02004404           JUNCTION     0.98     3.04     8.89     0  01:09        1.83
  WS02004405           JUNCTION     0.96     3.00     8.85     0  01:09        1.72
  WS02004406           JUNCTION     0.93     3.45     9.28     0  01:09        1.55
  WS02004407           JUNCTION     0.37     0.89     7.20     0  01:14        0.89
  WS02004409           JUNCTION     0.67     1.36     7.13     0  01:33        1.36
  WS02004410           JUNCTION     0.66     1.39     7.11     0  01:12        1.28
  WS02004411           JUNCTION     0.65     1.46     7.14     0  01:12        1.18
  WS02004412           JUNCTION     0.63     1.30     6.94     0  01:12        1.09
  WS02004413           JUNCTION     0.75     2.27     7.74     0  01:11        1.14
  WS02006109           JUNCTION     1.30     2.64     9.26     0  01:09        2.64
  WS02006110           JUNCTION     1.18     2.76     9.34     0  01:07        2.42
  WS02006111           JUNCTION     0.65     2.12     8.83     0  01:09        1.86
  WS02006112           JUNCTION     1.20     2.68     8.56     0  01:09        2.61
  WS02006113           JUNCTION     0.74     2.28     9.18     0  01:09        1.91
  WS02006115           JUNCTION     0.89     2.78     8.92     0  01:09        2.17
  WS02006116           JUNCTION     0.94     2.85     8.89     0  01:09        2.16
  WS02006228           JUNCTION     1.41     3.03     9.68     0  01:28        3.03
  WS02006229           JUNCTION     1.45     3.24     9.94     0  01:09        3.21
  WS02006230           JUNCTION     1.30     2.65     9.39     0  01:09        2.65
  WS02006231           JUNCTION     0.99     2.24     9.36     0  01:07        2.21
  WS02006232           JUNCTION     1.06     2.18     9.22     0  01:07        2.18
  WS02006234           JUNCTION     0.91     1.96     9.12     0  01:08        1.96
  WS02006235           JUNCTION     0.91     2.00     9.16     0  01:08        1.97
  WS02006238           JUNCTION     0.93     2.15     9.29     0  01:08        1.94
  WS02006239           JUNCTION     0.84     2.03     9.24     0  01:08        1.96
  WS02006240           JUNCTION     0.77     2.10     9.39     0  01:09        1.79
  WS02006242           JUNCTION     0.78     1.55     8.82     0  01:09        1.55
  WS02006243           JUNCTION     0.66     1.48     8.90     0  01:09        1.40
  WS02006245           JUNCTION     0.62     1.56     9.04     0  01:09        1.29
  WS02006247           JUNCTION     0.62     1.47     8.97     0  01:09        1.24
  WS02006248           JUNCTION     0.55     1.10     8.69     0  01:09        1.10
  WS02006249           JUNCTION     0.57     1.09     8.69     0  01:09        1.09
  WS02006251           JUNCTION     0.87     2.21     9.88     0  01:11        2.18
  WS02006252           JUNCTION     0.64     1.50     9.74     0  00:00        1.50
  WS02006253           JUNCTION     1.02     2.99    10.63     0  01:12        2.80
  WS02006256           JUNCTION     1.24     2.35     9.28     0  00:00        2.35
  WS02006280           JUNCTION     0.59     1.76    10.03     0  01:14        1.76
  WS02006284           JUNCTION     0.81     1.96    10.36     0  01:09        1.95
  WS02006287           JUNCTION     0.54     1.72    10.68     0  01:28        1.72
  WSF200               JUNCTION     0.27     0.59     5.83     0  01:12        0.53
  YS02001580           JUNCTION     0.24     1.05     9.59     0  01:09        0.79
  YS02001583           JUNCTION     0.28     1.14     9.64     0  01:09        0.82
  YS02001586           JUNCTION     0.41     1.13     9.30     0  01:08        1.13
  YS02001590           JUNCTION     0.54     1.40     9.26     0  01:07        1.38
  YS02001593           JUNCTION     0.48     1.38     9.24     0  01:09        1.29
  YS02001596           JUNCTION     0.63     1.71     9.13     0  01:09        1.67
  YS02001600           JUNCTION     0.72     1.87     9.00     0  01:08        1.87
  YS02001601           JUNCTION     0.92     2.06     8.90     0  01:08        2.06
  YS02001602           JUNCTION     0.80     1.87     8.77     0  01:10        1.87
  YS02001605           JUNCTION     0.74     1.78     8.68     0  01:10        1.78
  YS02001607           JUNCTION     0.69     1.68     8.53     0  01:10        1.68
  YS02001610           JUNCTION     0.73     1.68     8.48     0  01:10        1.68
  YS02001613           JUNCTION     0.69     1.70     8.54     0  01:10        1.70
  YS02001616           JUNCTION     0.62     1.61     8.52     0  01:10        1.59
  YS02001619           JUNCTION     0.60     1.61     8.54     0  01:10        1.61
  YS02001622           JUNCTION     0.59     1.59     8.49     0  01:10        1.58
  YS02001625           JUNCTION     0.84     1.78     8.38     0  01:10        1.78
  YS02001629           JUNCTION     0.74     1.85     8.40     0  01:10        1.85
  YS02001633           JUNCTION     0.81     2.06     8.51     0  01:14        2.06
  YS02001641           JUNCTION     0.77     1.94     8.38     0  01:15        1.94
  YS02001644           JUNCTION     0.76     1.92     8.35     0  01:14        1.92
  YS02001647           JUNCTION     0.54     1.89     8.50     0  01:14        1.89
  YS02001649           JUNCTION     0.60     1.89     8.28     0  01:28        1.89
  YS02001652           JUNCTION     0.47     1.85     8.44     0  02:17        1.73
  YS02001655           JUNCTION     0.37     2.20     9.05     0  02:17        1.47
  YS02001658           JUNCTION     0.26     1.38     8.52     0  01:15        1.17
  YS02001661           JUNCTION     0.24     0.92     8.32     0  01:32        0.92
  YS02001664           JUNCTION     0.09     0.30     8.22     0  01:32        0.30
  YS02001745           JUNCTION     0.12     0.66     8.17     0  01:25        0.64
  YS02001748           JUNCTION     0.24     1.35     8.42     0  01:24        1.16
  YS02001751           JUNCTION     0.31     1.47     8.35     0  01:14        1.29
  YS02001754           JUNCTION     0.41     1.60     8.21     0  01:25        1.55
  YS02001757           JUNCTION     0.60     1.90     8.17     0  01:28        1.89
  YS02001759           JUNCTION     0.54     1.95     8.32     0  01:28        1.95
  YS02001762           JUNCTION     0.53     2.00     8.40     0  01:28        2.00
  YS02001765           JUNCTION     0.51     1.99     8.44     0  01:28        1.99
  YS02001767           JUNCTION     0.50     1.97     8.46     0  01:28        1.97
  YS02001770           JUNCTION     0.52     1.95     8.44     0  01:15        1.95
  YS02001774           JUNCTION     0.58     2.05     8.47     0  01:15        2.05
  YS02001779           JUNCTION     0.40     1.68     8.37     0  01:13        1.68
  YS02001783           JUNCTION     0.41     1.30     7.44     0  01:12        1.22
  YS02001784           JUNCTION     0.40     1.14     7.21     0  01:12        1.11
  YS02001786           JUNCTION     0.33     0.89     6.92     0  01:12        0.87
  YS02001788           JUNCTION     0.24     0.62     6.60     0  01:12        0.62
  YS02001790           JUNCTION     0.28     0.72     6.37     0  01:39        0.72
  YS02001791           JUNCTION     0.17     0.44     5.91     0  01:16        0.43
  YS02001793           JUNCTION     0.09     0.30     5.13     0  01:23        0.27
  YS02001882           JUNCTION     0.51     1.75     8.46     0  01:10        1.72
  YS02001884           JUNCTION     0.60     1.79     8.40     0  01:14        1.79
  YS02001887           JUNCTION     0.67     1.90     8.44     0  01:14        1.90
  YS02001890           JUNCTION     0.70     1.81     8.32     0  01:12        1.81
  YS02001895           JUNCTION     0.48     1.58     8.33     0  01:12        1.57
  YS02001898           JUNCTION     0.48     1.61     8.34     0  01:12        1.56
  YS02001901           JUNCTION     0.60     1.73     8.34     0  01:12        1.73
  YS02001904           JUNCTION     0.57     1.68     8.31     0  01:12        1.68
  YS02001907           JUNCTION     0.89     1.96     8.25     0  01:12        1.96
  YS02001910           JUNCTION     0.70     1.97     8.48     0  01:12        1.94
  YS02001915           JUNCTION     0.51     1.92     8.63     0  01:12        1.88
  YS02001918           JUNCTION     0.33     1.81     8.88     0  01:12        1.81
  YS02001920           JUNCTION     0.40     2.14     9.15     0  01:12        2.04
  YS02001923           JUNCTION     0.26     2.03     9.29     0  01:12        1.96
  YS02001926           JUNCTION     0.27     1.90     9.35     0  01:13        1.90
  YS02001929           JUNCTION     0.17     1.78     9.47     0  01:13        1.78
  YS02006553           JUNCTION     0.89     1.99     8.28     0  01:14        1.99
  YS02006556           JUNCTION     0.86     2.12     8.43     0  01:14        2.12
  YS02006558           JUNCTION     0.90     2.17     8.44     0  01:14        2.17
  YS02006561           JUNCTION     0.26     0.99     7.65     0  01:12        0.88
  YS02163301           JUNCTION     0.76     1.96     8.48     0  01:14        1.96
  YS02163601           JUNCTION     0.84     2.04     8.44     0  02:11        2.04
  YS02164001           JUNCTION     0.77     1.94     8.40     0  01:24        1.94
  YSB1154              JUNCTION     0.68     2.10    11.16     0  01:14        2.10
  YSB1171              JUNCTION     0.81     1.95    10.85     0  01:09        1.95
  YSB1174              JUNCTION     0.62     1.81    10.92     0  01:09        1.78
  YSB6556              JUNCTION     0.57     1.80    10.97     0  01:09        1.80
  CC-1                 OUTFALL      0.00     0.00     0.00     0  00:00        0.00
  CC-2                 OUTFALL      0.00     0.00     0.00     0  00:00        0.00
  JK-1                 OUTFALL      0.00     0.00     0.00     0  00:00        0.00
  JK-2                 OUTFALL      0.00     0.00     0.00     0  00:00        0.00
  WSC                  OUTFALL      0.33     0.51     1.18     0  01:21        0.51
  CC-storage           STORAGE      0.84     1.58     7.08     0  02:13        1.58
  JK-storage           STORAGE      1.60     4.24     5.04     0  01:44        4.23
  XR-storage           STORAGE      7.83     9.26     7.26     0  08:00        9.26
  
  
  *******************
  Node Inflow Summary
  *******************
  
  -------------------------------------------------------------------------------------------------
                                  Maximum  Maximum                  Lateral       Total        Flow
                                  Lateral    Total  Time of Max      Inflow      Inflow     Balance
                                   Inflow   Inflow   Occurrence      Volume      Volume       Error
  Node                 Type           LPS      LPS  days hr:min    10^6 ltr    10^6 ltr     Percent
  -------------------------------------------------------------------------------------------------
  HS02004478           JUNCTION      0.00  2461.82     0  01:08           0        15.3      -0.008
  HS02004479           JUNCTION      0.00   442.62     0  01:12           0        1.33       0.068
  HS02004480           JUNCTION      0.00  2286.05     0  01:09           0        11.4      -0.010
  HS02004770           JUNCTION   1248.09  1248.09     0  01:33        5.36        5.64       0.048
  HS02004777           JUNCTION      0.03   828.44     0  01:08    0.000864        3.13       0.173
  HS02004785           JUNCTION      0.15   831.98     0  01:08     0.00432        3.13       0.015
  HS02004788           JUNCTION    457.23  1077.99     0  01:08           2        5.14      -0.001
  HS02004792           JUNCTION   1587.13  2342.17     0  01:33        7.02        12.2      -0.002
  HS02004799           JUNCTION    264.53  1917.57     0  01:09        1.12        10.3       0.057
  HS02004802           JUNCTION      0.00  1079.27     0  01:33           0        4.07       0.080
  HS02004807           JUNCTION    323.33  1078.82     0  01:33        1.37        4.11       0.104
  HS02004817           JUNCTION      0.60   757.79     0  01:33      0.0173         2.8       0.592
  HS02004824           JUNCTION    553.83   756.97     0  01:33        2.44        3.18       0.022
  HS02004830           JUNCTION      0.15   720.75     0  01:10     0.00432        1.14       0.131
  HS02004837           JUNCTION    312.66   960.82     0  01:10        1.48        2.05       0.039
  HS02004842           JUNCTION      0.00   900.64     0  01:10           0        1.48       0.889
  HS02004848           JUNCTION    518.54  1110.77     0  01:10        2.49        3.85      -0.002
  HS02004852           JUNCTION      0.00  1061.06     0  01:10           0        3.75      -0.001
  HS02004856           JUNCTION    133.68  1120.70     0  01:11       0.565        4.32       0.016
  HS02004862           JUNCTION    226.02  1225.47     0  01:11        1.04        5.36      -0.014
  HS02004870           JUNCTION    177.64  1359.48     0  01:11       0.751        6.11       0.000
  HS02004876           JUNCTION    184.04  1341.64     0  01:33       0.779        6.89       0.011
  HS02004881           JUNCTION     93.77  1434.65     0  01:33       0.396        7.28       0.012
  HS02004901           JUNCTION    282.42   548.21     0  01:32        1.19        2.19       0.082
  WS02001211           JUNCTION      7.35   386.05     0  01:16       0.212        5.45       0.608
  WS02001212           JUNCTION      0.00   520.59     0  01:14           0        5.43       0.289
  WS02001213           JUNCTION      0.00   481.47     0  01:13           0        5.42       0.316
  WS02003059           JUNCTION      0.00   549.96     0  01:13           0        5.43       0.586
  WS02003060           JUNCTION     16.53  1646.93     0  01:12       0.476        16.9       0.087
  WS02003066           JUNCTION      0.00  1280.45     0  01:21           0          11       0.014
  WS02003067           JUNCTION      0.00  1278.63     0  01:32           0          11       0.039
  WS02003069           JUNCTION      0.32  1519.53     0  01:20     0.00922        16.9       0.093
  WS02003072           JUNCTION      0.00  1510.04     0  01:21           0        16.8       0.125
  WS02003073           JUNCTION      1.82  1508.76     0  01:20      0.0524        16.9       0.128
  WS02004138           JUNCTION      0.00   380.00     0  00:00           0        5.25       0.054
  WS02004139           JUNCTION      0.32   336.46     0  01:15     0.00924        5.26       0.508
  WS02004401           JUNCTION      0.00  1471.06     0  01:09           0        11.1       0.089
  WS02004402           JUNCTION      0.00  1486.01     0  01:09           0        11.1       0.092
  WS02004403           JUNCTION      0.00  1387.87     0  01:09           0        11.1       0.086
  WS02004404           JUNCTION      0.16  1394.46     0  01:09     0.00467        11.1       0.073
  WS02004405           JUNCTION      0.04  1389.76     0  01:09      0.0011        11.1       0.109
  WS02004406           JUNCTION      0.00  1480.82     0  01:09           0        11.1       0.177
  WS02004407           JUNCTION      0.00  1401.59     0  01:09           0        11.1       0.013
  WS02004409           JUNCTION      0.00  1456.63     0  01:10           0        11.1       0.034
  WS02004410           JUNCTION      0.00  1499.37     0  01:10           0        11.1       0.038
  WS02004411           JUNCTION      0.00  1369.72     0  01:11           0        11.1       0.051
  WS02004412           JUNCTION      0.00  1278.81     0  01:33           0        11.1       0.071
  WS02004413           JUNCTION      0.00  1286.12     0  01:11           0        11.1       0.104
  WS02006109           JUNCTION      1.23  1322.15     0  01:09      0.0354        10.9       0.080
  WS02006110           JUNCTION      0.00  1327.43     0  01:09           0        10.2       0.067
  WS02006111           JUNCTION      0.00  1336.62     0  01:09           0        10.2       0.003
  WS02006112           JUNCTION    231.28  1427.14     0  01:09       0.975        11.2       0.175
  WS02006113           JUNCTION      0.00  1330.92     0  01:09           0        10.2       0.019
  WS02006115           JUNCTION      0.00  1428.59     0  01:09           0        11.2       0.038
  WS02006116           JUNCTION      0.00  1449.40     0  01:09           0        11.1       0.015
  WS02006228           JUNCTION      0.00  1317.81     0  01:09           0        10.9       0.031
  WS02006229           JUNCTION      0.00  2285.69     0  01:32           0        16.6       0.041
  WS02006230           JUNCTION     10.28  1016.14     0  01:34       0.296        7.06       0.128
  WS02006231           JUNCTION      0.00   750.67     0  01:08           0        4.23      -0.077
  WS02006232           JUNCTION      0.00   749.80     0  01:08           0         4.2       0.092
  WS02006234           JUNCTION      0.00   749.46     0  01:08           0        4.17       0.003
  WS02006235           JUNCTION      0.00   766.27     0  01:08           0        3.89      -0.068
  WS02006238           JUNCTION      0.00   725.74     0  01:08           0        3.75      -0.065
  WS02006239           JUNCTION      0.00   778.25     0  01:08           0        3.69      -0.092
  WS02006240           JUNCTION      0.00  1035.02     0  01:09           0        3.65      -0.083
  WS02006242           JUNCTION      0.00   839.92     0  01:09           0        3.64      -0.063
  WS02006243           JUNCTION      0.00   610.88     0  01:09           0        2.76      -0.117
  WS02006245           JUNCTION      0.00   469.22     0  01:09           0        2.76       0.514
  WS02006247           JUNCTION      0.00   483.45     0  01:09           0        2.76       0.007
  WS02006248           JUNCTION      0.00   500.32     0  01:09           0        3.22      -0.103
  WS02006249           JUNCTION      0.00  1337.44     0  01:12           0         9.9       0.137
  WS02006251           JUNCTION      0.08  1456.86     0  01:33     0.00222        10.1      -0.009
  WS02006252           JUNCTION      0.00   723.01     0  01:33           0        5.08      -0.512
  WS02006253           JUNCTION     22.60  1457.50     0  01:32      0.0955        7.44       0.022
  WS02006256           JUNCTION      0.00   450.00     0  00:20           0        1.05      -0.240
  WS02006280           JUNCTION      0.00  2284.45     0  01:32           0        15.3      -0.021
  WS02006284           JUNCTION      0.10  2317.30     0  01:09     0.00275        15.3      -0.020
  WS02006287           JUNCTION      0.00  2465.17     0  01:08           0        15.3       0.069
  WSF200               JUNCTION      0.00  1299.18     0  01:12           0          11       0.008
  YS02001580           JUNCTION      0.00   150.78     0  01:09           0     0.00487      -0.117
  YS02001583           JUNCTION      0.00   248.70     0  01:09           0      0.0151     -10.518
  YS02001586           JUNCTION    673.09   673.20     0  01:35        3.27        3.28       0.066
  YS02001590           JUNCTION      0.00   320.09     0  01:14           0        2.33      -0.047
  YS02001593           JUNCTION      0.00   319.74     0  01:14           0        2.34       0.011
  YS02001596           JUNCTION      0.00   318.11     0  02:08           0        2.34      -0.022
  YS02001600           JUNCTION      0.00   318.13     0  01:14           0        2.34       0.033
  YS02001601           JUNCTION   1012.02  1329.44     0  01:32        4.37        6.71       0.010
  YS02001602           JUNCTION      0.00   606.57     0  01:09           0        3.46       0.014
  YS02001605           JUNCTION      0.00   606.35     0  01:09           0        3.16       0.023
  YS02001607           JUNCTION      0.00   606.27     0  01:09           0        3.16       0.038
  YS02001610           JUNCTION      0.00   610.09     0  01:34           0        3.61       0.076
  YS02001613           JUNCTION      0.00   571.56     0  01:09           0        2.36       0.059
  YS02001616           JUNCTION      0.00   512.97     0  01:09           0        2.36       0.025
  YS02001619           JUNCTION   1146.62  1146.62     0  01:35        5.26        7.16      -0.010
  YS02001622           JUNCTION      0.00   912.28     0  01:11           0         6.7      -0.002
  YS02001625           JUNCTION      0.00  1166.09     0  01:33           0        7.09       0.140
  YS02001629           JUNCTION      0.00   912.12     0  01:11           0        4.43      -0.003
  YS02001633           JUNCTION    754.43  1395.83     0  01:12        3.22        7.26       0.046
  YS02001641           JUNCTION      0.00  1393.11     0  01:11           0        6.87       0.039
  YS02001644           JUNCTION    658.69  1835.08     0  01:12         2.8        9.66       0.031
  YS02001647           JUNCTION      0.00  1834.81     0  01:12           0         9.5       0.001
  YS02001649           JUNCTION      0.00  2245.60     0  01:12           0        12.1       0.007
  YS02001652           JUNCTION      0.00   614.18     0  01:32           0         2.6      -0.105
  YS02001655           JUNCTION      0.15   616.06     0  01:24     0.00443         2.6      -0.064
  YS02001658           JUNCTION      0.00   663.29     0  01:15           0         2.6      -0.072
  YS02001661           JUNCTION      0.00   613.06     0  01:32           0         2.6       0.041
  YS02001664           JUNCTION    613.09   613.09     0  01:32        2.59        2.59      -0.009
  YS02001745           JUNCTION    364.87   364.87     0  01:31        1.54        1.54       0.099
  YS02001748           JUNCTION      0.04   648.44     0  01:20      0.0013        1.54      -0.317
  YS02001751           JUNCTION      0.01   505.20     0  01:14    0.000317        1.55       0.092
  YS02001754           JUNCTION      0.26   408.17     0  01:23     0.00749        1.55      -0.162
  YS02001757           JUNCTION      0.00  3376.67     0  01:23           0          19       0.032
  YS02001759           JUNCTION    507.70  1272.42     0  01:23        2.14        5.38      -0.014
  YS02001762           JUNCTION      0.00   770.13     0  01:23           0        3.25      -0.003
  YS02001765           JUNCTION      0.00   766.39     0  01:23           0        3.24       0.004
  YS02001767           JUNCTION      0.54   763.35     0  01:23      0.0154        3.24       0.000
  YS02001770           JUNCTION    760.51   761.73     0  01:31        3.23        3.28      -0.022
  YS02001774           JUNCTION      0.00   318.25     0  01:13           0      0.0722       1.431
  YS02001779           JUNCTION      0.01   321.26     0  01:13    0.000144       0.024      -1.843
  YS02001783           JUNCTION      0.00  1157.67     0  01:14           0        7.42       0.004
  YS02001784           JUNCTION      1.06  1158.35     0  01:14      0.0305        7.45       0.006
  YS02001786           JUNCTION      0.06  1158.93     0  01:14     0.00162        7.45       0.009
  YS02001788           JUNCTION      0.07  1160.34     0  01:14     0.00204        7.45       0.004
  YS02001790           JUNCTION      0.15  1169.00     0  01:23     0.00446        7.46       0.036
  YS02001791           JUNCTION      0.00  1283.02     0  01:39           0        7.46      -0.050
  YS02001793           JUNCTION      0.00  1243.63     0  01:31           0        7.46       0.004
  YS02001882           JUNCTION      0.00   112.58     0  01:09           0      0.0156       2.999
  YS02001884           JUNCTION      0.00   198.24     0  01:09           0      0.0553       4.583
  YS02001887           JUNCTION    518.71   519.51     0  01:30         2.2        2.24       0.189
  YS02001890           JUNCTION      0.00   519.96     0  01:30           0         2.2       0.233
  YS02001895           JUNCTION      0.00   516.28     0  01:31           0        2.19       0.144
  YS02001898           JUNCTION      0.00   516.15     0  01:30           0        2.19      -0.047
  YS02001901           JUNCTION      0.00   516.12     0  01:30           0         2.2       0.163
  YS02001904           JUNCTION      0.00   516.46     0  01:32           0        2.22       0.116
  YS02001907           JUNCTION      0.00  1614.35     0  01:32           0        6.99       0.255
  YS02001910           JUNCTION      0.00  1099.49     0  01:32           0        4.78       0.148
  YS02001915           JUNCTION    720.94  1099.10     0  01:32        3.08        4.83       0.029
  YS02001918           JUNCTION      0.00   469.42     0  01:11           0        1.78      -0.000
  YS02001920           JUNCTION      2.87   435.84     0  01:13      0.0827        1.76       0.045
  YS02001923           JUNCTION      0.04   505.96     0  01:11     0.00109        1.66      -0.055
  YS02001926           JUNCTION      0.05   781.83     0  01:12      0.0015        1.64       0.009
  YS02001929           JUNCTION    374.48   526.58     0  01:12        1.62        1.62      -0.040
  YS02006553           JUNCTION      0.00   783.90     0  02:14           0        4.27       0.276
  YS02006556           JUNCTION      0.00   783.89     0  02:14           0        4.29       0.180
  YS02006558           JUNCTION    762.44  1166.86     0  01:12        3.24        7.48       0.045
  YS02006561           JUNCTION      0.00  1166.96     0  01:12           0        7.42       0.003
  YS02163301           JUNCTION      0.00   912.27     0  01:11           0        4.44       0.030
  YS02163601           JUNCTION      0.11  1394.59     0  01:12     0.00317        6.85       0.072
  YS02164001           JUNCTION      0.00  1394.40     0  01:12           0        6.86       0.035
  YSB1154              JUNCTION    314.52   314.52     0  01:31        1.34        1.34       0.095
  YSB1171              JUNCTION      0.00   688.98     0  01:32           0        2.47       0.246
  YSB1174              JUNCTION    242.93   242.93     0  01:31        1.02        1.02       0.105
  YSB6556              JUNCTION      0.00   314.79     0  01:31           0        1.34       0.079
  CC-1                 OUTFALL       0.00  1024.50     0  00:05           0        6.05       0.000
  CC-2                 OUTFALL       0.00  1024.50     0  00:05           0         8.9       0.000
  JK-1                 OUTFALL       0.00  1500.00     0  01:20           0       0.731       0.000
  JK-2                 OUTFALL       0.00  1500.00     0  01:15           0         5.8       0.000
  WSC                  OUTFALL       0.00  1507.68     0  01:21           0        16.8       0.000
  CC-storage           STORAGE       0.00  3379.78     0  01:23           0        21.3      -0.136
  JK-storage           STORAGE       0.00  1286.83     0  01:45           0        7.61      -0.216
  XR-storage           STORAGE     200.00   200.00     0  00:00        5.76        6.36       0.001
  
  
  **********************
  Node Surcharge Summary
  **********************
  
  Surcharging occurs when water rises above the top of the highest conduit.
  ---------------------------------------------------------------------
                                               Max. Height   Min. Depth
                                   Hours       Above Crown    Below Rim
  Node                 Type      Surcharged         Meters       Meters
  ---------------------------------------------------------------------
  HS02004478           JUNCTION        1.38          0.641        0.299
  HS02004479           JUNCTION        1.55          0.876        0.174
  HS02004480           JUNCTION        1.61          0.940        0.160
  HS02004770           JUNCTION        1.48          0.720        0.000
  HS02004777           JUNCTION        1.48          0.780        0.000
  HS02004785           JUNCTION        1.42          0.790        0.000
  HS02004788           JUNCTION        1.41          0.720        0.000
  HS02004792           JUNCTION        1.56          0.900        0.000
  HS02004799           JUNCTION        1.90          1.060        0.000
  HS02004802           JUNCTION        1.61          1.044        0.166
  HS02004807           JUNCTION        1.58          1.177        0.043
  HS02004817           JUNCTION        2.07          1.641        0.099
  HS02004824           JUNCTION        1.40          1.213        0.097
  HS02004830           JUNCTION        1.36          1.235        0.095
  HS02004837           JUNCTION        1.31          1.194        0.146
  HS02004842           JUNCTION        1.47          1.520        0.000
  HS02004848           JUNCTION        1.27          1.370        0.000
  HS02004852           JUNCTION        1.31          1.420        0.000
  HS02004856           JUNCTION        1.29          1.300        0.000
  HS02004862           JUNCTION        1.34          1.300        0.000
  HS02004870           JUNCTION        1.36          1.356        0.044
  HS02004876           JUNCTION        1.48          1.331        0.229
  HS02004881           JUNCTION        1.45          1.058        0.392
  HS02004901           JUNCTION        1.49          0.720        0.000
  WS02004401           JUNCTION        2.26          1.660        0.000
  WS02004402           JUNCTION        2.30          1.740        0.000
  WS02004403           JUNCTION        2.30          1.915        0.115
  WS02004404           JUNCTION        2.34          2.040        0.740
  WS02004405           JUNCTION        2.33          2.001        0.799
  WS02004406           JUNCTION        2.32          2.450        0.000
  WS02004409           JUNCTION        1.92          0.362        1.998
  WS02004410           JUNCTION        1.90          0.389        2.151
  WS02004411           JUNCTION        1.88          0.455        2.075
  WS02004412           JUNCTION        1.84          0.304        2.006
  WS02004413           JUNCTION        2.04          1.266        0.934
  WS02006109           JUNCTION        2.50          1.820        0.000
  WS02006110           JUNCTION        2.38          1.850        0.000
  WS02006111           JUNCTION        2.04          1.310        0.560
  WS02006112           JUNCTION        2.43          1.680        0.000
  WS02006113           JUNCTION        2.06          1.484        0.446
  WS02006115           JUNCTION        2.17          1.767        0.483
  WS02006116           JUNCTION        2.19          1.791        0.499
  WS02006228           JUNCTION        2.49          2.200        0.000
  WS02006229           JUNCTION        1.94          1.064        0.006
  WS02006230           JUNCTION        2.32          1.570        0.000
  WS02006231           JUNCTION        2.33          1.530        0.000
  WS02006232           JUNCTION        2.39          1.480        0.000
  WS02006234           JUNCTION        2.33          1.240        0.000
  WS02006235           JUNCTION        2.34          1.290        0.000
  WS02006238           JUNCTION        2.35          1.430        0.000
  WS02006239           JUNCTION        2.32          1.290        0.000
  WS02006240           JUNCTION        2.31          1.390        0.000
  WS02006242           JUNCTION        2.31          0.820        0.000
  WS02006243           JUNCTION        2.30          0.770        0.000
  WS02006245           JUNCTION        2.29          0.850        0.000
  WS02006247           JUNCTION        2.29          0.760        0.000
  WS02006248           JUNCTION        2.29          0.380        0.000
  WS02006249           JUNCTION        2.29          0.390        0.000
  WS02006251           JUNCTION        2.25          1.180        0.000
  WS02006252           JUNCTION        2.54          1.100        0.000
  WS02006253           JUNCTION        2.26          1.945        0.535
  WS02006256           JUNCTION        7.30          2.050        0.000
  WS02006280           JUNCTION        1.88          0.707        0.073
  WS02006284           JUNCTION        1.64          0.679        0.121
  WS02006287           JUNCTION        1.48          0.723        0.167
  YS02001580           JUNCTION        1.57          0.450        0.000
  YS02001583           JUNCTION        1.58          0.500        0.000
  YS02001586           JUNCTION        1.87          0.510        0.000
  YS02001590           JUNCTION        1.92          0.750        0.000
  YS02001593           JUNCTION        1.92          0.756        0.084
  YS02001596           JUNCTION        1.98          0.984        0.086
  YS02001600           JUNCTION        2.03          1.190        0.000
  YS02001601           JUNCTION        2.20          1.440        0.000
  YS02001602           JUNCTION        2.14          1.270        0.000
  YS02001605           JUNCTION        2.12          1.180        0.000
  YS02001607           JUNCTION        1.86          0.680        0.000
  YS02001610           JUNCTION        1.87          0.680        0.000
  YS02001613           JUNCTION        1.85          0.700        0.000
  YS02001616           JUNCTION        1.82          0.610        0.000
  YS02001619           JUNCTION        1.81          0.610        0.000
  YS02001622           JUNCTION        1.81          0.586        0.034
  YS02001625           JUNCTION        1.93          0.780        0.000
  YS02001629           JUNCTION        1.62          0.470        0.000
  YS02001633           JUNCTION        1.93          1.036        0.024
  YS02001641           JUNCTION        1.88          0.945        0.155
  YS02001644           JUNCTION        1.86          0.920        0.000
  YS02001647           JUNCTION        1.52          0.886        0.014
  YS02001649           JUNCTION        1.73          0.895        0.155
  YS02001652           JUNCTION        1.39          0.816        0.314
  YS02001655           JUNCTION        1.13          1.200        0.000
  YS02001658           JUNCTION        0.70          0.380        0.920
  YS02001748           JUNCTION        0.12          0.267        0.923
  YS02001751           JUNCTION        0.91          0.469        0.731
  YS02001754           JUNCTION        1.28          0.548        0.602
  YS02001757           JUNCTION        1.77          0.904        0.306
  YS02001759           JUNCTION        1.61          0.954        0.256
  YS02001762           JUNCTION        1.56          1.001        0.149
  YS02001765           JUNCTION        1.49          0.986        0.114
  YS02001767           JUNCTION        1.44          0.968        0.062
  YS02001770           JUNCTION        1.40          0.920        0.000
  YS02001774           JUNCTION        1.54          1.050        0.000
  YS02001779           JUNCTION        1.28          0.680        0.000
  YS02001783           JUNCTION        1.38          0.497        1.103
  YS02001784           JUNCTION        1.35          0.341        1.149
  YS02001786           JUNCTION        1.11          0.092        1.338
  YS02001882           JUNCTION        1.26          0.748        0.082
  YS02001884           JUNCTION        1.30          0.728        0.142
  YS02001887           JUNCTION        1.37          0.852        0.098
  YS02001890           JUNCTION        1.39          0.760        0.000
  YS02001895           JUNCTION        1.23          0.585        0.165
  YS02001898           JUNCTION        1.21          0.580        0.160
  YS02001901           JUNCTION        1.35          0.730        0.140
  YS02001904           JUNCTION        1.33          0.683        0.167
  YS02001907           JUNCTION        1.86          0.950        0.000
  YS02001910           JUNCTION        1.42          0.969        0.131
  YS02001915           JUNCTION        1.27          0.916        0.084
  YS02001918           JUNCTION        1.09          0.810        0.000
  YS02001920           JUNCTION        1.11          1.140        0.000
  YS02001923           JUNCTION        0.01          0.820        0.000
  YS02001926           JUNCTION        0.01          0.900        0.000
  YS02001929           JUNCTION        0.01          0.780        0.000
  YS02006553           JUNCTION        1.89          0.992        0.198
  YS02006556           JUNCTION        1.53          1.080        0.270
  YS02006558           JUNCTION        1.51          1.073        0.327
  YS02006561           JUNCTION        1.04          0.189        0.961
  YS02163301           JUNCTION        1.92          0.961        0.069
  YS02163601           JUNCTION        1.94          1.043        0.037
  YS02164001           JUNCTION        1.89          0.943        0.157
  YSB1154              JUNCTION        1.95          1.400        0.000
  YSB1171              JUNCTION        1.95          1.100        0.000
  YSB1174              JUNCTION        1.92          1.108        0.142
  YSB6556              JUNCTION        1.76          1.100        0.000
  
  
  *********************
  Node Flooding Summary
  *********************
  
  Flooding refers to all water that overflows a node, whether it ponds or not.
  --------------------------------------------------------------------------
                                                             Total   Maximum
                                 Maximum   Time of Max       Flood    Ponded
                        Hours       Rate    Occurrence      Volume     Depth
  Node                 Flooded       LPS   days hr:min    10^6 ltr    Meters
  --------------------------------------------------------------------------
  HS02004770              1.05    684.20      0  01:33       1.507     0.000
  HS02004777              0.01     11.84      0  01:08       0.000     0.000
  HS02004785              0.01     49.24      0  01:08       0.000     0.000
  HS02004788              0.01    390.02      0  01:08       0.002     0.000
  HS02004792              1.07   1200.00      0  01:33       2.979     0.000
  HS02004799              0.54     70.02      0  01:30       0.084     0.000
  HS02004842              0.01     26.88      0  01:12       0.000     0.000
  HS02004848              0.01     70.79      0  01:12       0.000     0.000
  HS02004852              0.01     80.75      0  01:12       0.000     0.000
  HS02004856              0.01    296.57      0  01:11       0.001     0.000
  HS02004862              0.01    166.75      0  01:12       0.001     0.000
  HS02004901              1.30    548.21      0  01:32       1.910     0.000
  WS02004401              0.01     51.65      0  01:09       0.000     0.000
  WS02004402              0.01     41.52      0  01:09       0.000     0.000
  WS02004406              0.01    901.75      0  01:09       0.001     0.000
  WS02006109              1.23    232.75      0  01:32       0.677     0.000
  WS02006110              0.01    275.57      0  01:07       0.000     0.000
  WS02006112              0.01    127.27      0  01:09       0.001     0.000
  WS02006228              0.01      0.45      0  01:28       0.000     0.000
  WS02006230              1.65    563.72      0  01:32       2.580     0.000
  WS02006231              0.01    112.97      0  01:07       0.000     0.000
  WS02006232              0.36    376.57      0  01:07       0.001     0.000
  WS02006234              1.85    144.81      0  01:08       0.512     0.000
  WS02006235              0.01     85.53      0  01:09       0.001     0.000
  WS02006238              0.01     61.69      0  01:08       0.000     0.000
  WS02006239              0.01    546.29      0  01:08       0.001     0.000
  WS02006240              0.01    839.04      0  01:09       0.003     0.000
  WS02006242              1.92    794.87      0  01:09       0.884     0.000
  WS02006243              0.01    562.74      0  01:09       0.009     0.000
  WS02006245              0.01    163.20      0  01:09       0.001     0.000
  WS02006247              0.01    131.34      0  01:09       0.000     0.000
  WS02006248              2.03    375.63      0  01:12       2.376     0.000
  WS02006249              2.22   1273.43      0  01:33       8.582     0.000
  WS02006251              0.01     35.64      0  01:11       0.000     0.000
  WS02006252              1.58    722.75      0  01:33       2.451     0.000
  WS02006256              0.85    443.52      0  01:10       0.717     0.000
  YS02001580              0.01     98.20      0  01:09       0.000     0.000
  YS02001583              0.01    158.90      0  01:09       0.000     0.000
  YS02001586              1.33    355.80      0  01:35       0.934     0.000
  YS02001590              0.01     73.82      0  01:07       0.000     0.000
  YS02001600              0.01      5.62      0  01:09       0.000     0.000
  YS02001601              1.72    931.63      0  01:32       3.241     0.000
  YS02001602              1.43     62.01      0  01:24       0.305     0.000
  YS02001605              0.01     22.10      0  01:10       0.000     0.000
  YS02001607              0.01    121.68      0  01:10       0.000     0.000
  YS02001610              1.34    610.04      0  01:35       1.717     0.000
  YS02001613              0.01     77.05      0  01:10       0.000     0.000
  YS02001616              0.01     39.24      0  01:10       0.000     0.000
  YS02001619              0.01     14.49      0  01:10       0.000     0.000
  YS02001625              1.30   1165.98      0  01:33       3.052     0.000
  YS02001629              0.05    214.17      0  01:10       0.002     0.000
  YS02001644              0.34    215.80      0  01:33       0.135     0.000
  YS02001655              0.01    173.32      0  02:17       0.000     0.000
  YS02001770              0.01     11.04      0  01:15       0.000     0.000
  YS02001774              0.01      5.22      0  01:15       0.000     0.000
  YS02001779              0.09    267.46      0  01:13       0.003     0.000
  YS02001890              0.26     29.79      0  01:12       0.002     0.000
  YS02001907              1.00   1223.07      0  01:32       2.724     0.000
  YS02001918              0.01    146.36      0  01:13       0.002     0.000
  YS02001920              0.01     50.35      0  01:12       0.000     0.000
  YS02001923              0.01     72.30      0  01:12       0.000     0.000
  YS02001926              0.01     38.25      0  01:13       0.000     0.000
  YS02001929              0.01    303.38      0  01:13       0.002     0.000
  YSB1154                 0.01      0.19      0  01:14       0.000     0.000
  YSB1171                 0.81    688.30      0  01:32       1.256     0.000
  YSB6556                 0.01     13.76      0  01:09       0.000     0.000
  
  
  **********************
  Storage Volume Summary
  **********************
  
  --------------------------------------------------------------------------------------------------
                         Average     Avg  Evap Exfil       Maximum     Max    Time of Max    Maximum
                          Volume    Pcnt  Pcnt  Pcnt        Volume    Pcnt     Occurrence    Outflow
  Storage Unit           1000 m3    Full  Loss  Loss       1000 m3    Full    days hr:min        LPS
  --------------------------------------------------------------------------------------------------
  CC-storage               2.337      36     0     0         4.409      69       0  02:13    2549.00
  JK-storage               0.081      28     0     0         0.213      73       0  01:44    3450.00
  XR-storage               0.940      65     0     0         1.111      77       0  08:00     380.00
  
  
  ***********************
  Outfall Loading Summary
  ***********************
  
  -----------------------------------------------------------
                         Flow       Avg       Max       Total
                         Freq      Flow      Flow      Volume
  Outfall Node           Pcnt       LPS       LPS    10^6 ltr
  -----------------------------------------------------------
  CC-1                  43.84    770.33   1024.50       6.052
  CC-2                  50.74   1019.38   1024.50       8.897
  JK-1                   3.44   1167.08   1500.00       0.731
  JK-2                  19.16   1495.37   1500.00       5.796
  WSC                   99.95    770.01   1507.68      16.847
  -----------------------------------------------------------
  System                43.43   5222.17   1507.68      38.324
  
  
  ********************
  Link Flow Summary
  ********************
  
  -----------------------------------------------------------------------------
                                 Maximum  Time of Max   Maximum    Max/    Max/
                                  |Flow|   Occurrence   |Veloc|    Full    Full
  Link                 Type          LPS  days hr:min     m/sec    Flow   Depth
  -----------------------------------------------------------------------------
  1                    CONDUIT   1507.68     0  01:21      3.70    0.53    0.52
  HS02004478WS02006287 CONDUIT   2465.17     0  01:08      3.01    0.69    1.00
  HS02004479HS02004480 CONDUIT    441.23     0  01:11      0.63    0.43    1.00
  HS02004480HS02004478 CONDUIT   2282.11     0  01:09      3.26    9.61    1.00
  HS02004770HS02004777 CONDUIT    828.41     0  01:08      1.18    1.52    1.00
  HS02004777HS02004785 CONDUIT    831.83     0  01:08      1.30    1.02    1.00
  HS02004785HS02004788 CONDUIT    849.64     0  01:08      1.36    6.41    1.00
  HS02004788HS02004792 CONDUIT    945.35     0  01:09      1.46    0.63    1.00
  HS02004792HS02004799 CONDUIT   1744.30     0  01:09      2.49    1.07    1.00
  HS02004799HS02004480 CONDUIT   1916.54     0  01:09      2.74    2.42    1.00
  HS02004802HS02004478 CONDUIT   1079.27     0  01:33      1.54    0.95    1.00
  HS02004807HS02004802 CONDUIT   1079.27     0  01:33      1.54    2.06    1.00
  HS02004817HS02004807 CONDUIT    757.73     0  01:33      1.08    0.45    1.00
  HS02004817HS02004824 CONDUIT    757.19     0  01:33      1.08    0.34    1.00
  HS02004824HS02004830 CONDUIT    720.60     0  01:10      1.07    0.94    1.00
  HS02004830HS02004837 CONDUIT    750.13     0  01:10      1.17    0.75    1.00
  HS02004837HS02004842 CONDUIT    900.64     0  01:10      1.29    0.54    1.00
  HS02004842HS02004848 CONDUIT    898.89     0  01:10      1.45    0.52    1.00
  HS02004848HS02004852 CONDUIT   1061.06     0  01:10      1.67    1.20    1.00
  HS02004852HS02004856 CONDUIT   1014.48     0  01:11      1.51    1.16    1.00
  HS02004856HS02004862 CONDUIT   1106.73     0  01:11      1.74    1.10    1.00
  HS02004862HS02004870 CONDUIT   1218.77     0  01:11      1.91    1.32    1.00
  HS02004870HS02004876 CONDUIT   1169.00     0  01:12      1.69    0.78    1.00
  HS02004876HS02004881 CONDUIT   1341.51     0  01:33      2.28   14.27    1.00
  HS02004881HS02006253 CONDUIT   1435.00     0  01:32      2.96    0.28    1.00
  HS02004901HS02004770 CONDUIT    265.79     0  02:10      0.38    1.00    1.00
  WS02001211WS02001212 CONDUIT    319.64     0  01:18      0.54    0.24    0.72
  WS02001212WS02001213 CONDUIT    358.95     0  01:14      1.04    0.55    0.62
  WS02001213WS02003059 CONDUIT    331.79     0  01:13      0.48    0.55    0.92
  WS02003059WS02003060 CONDUIT    452.89     0  01:13      0.81    0.30    0.83
  WS02003060WS02003069 CONDUIT   1519.21     0  01:20      2.35    0.59    0.61
  WS02003066WSF200     CONDUIT   1299.18     0  01:12      3.76    0.22    0.41
  WS02003067WS02003066 CONDUIT   1280.45     0  01:21      2.03    0.41    0.58
  WS02003069WS02003072 CONDUIT   1510.04     0  01:21      1.90    0.73    0.66
  WS02003072WS02003073 CONDUIT   1506.94     0  01:20      2.05    3.25    0.62
  WS02004138WS02004139 CONDUIT    190.82     0  00:29      2.16    0.04    0.44
  WS02004139WS02001211 CONDUIT    378.70     0  01:16      0.54    0.48    0.63
  WS02004401WS02004402 CONDUIT   1486.01     0  01:09      1.90    1.78    1.00
  WS02004402WS02004403 CONDUIT   1387.87     0  01:09      1.78    1.99    1.00
  WS02004403WS02004404 CONDUIT   1394.29     0  01:09      1.78    1.01    1.00
  WS02004404WS02004405 CONDUIT   1389.72     0  01:09      1.77   13.62    1.00
  WS02004405WS02004406 CONDUIT   1480.82     0  01:09      1.90    2.92    1.00
  WS02004406WS02004407 CONDUIT   1401.59     0  01:09      2.39    0.63    0.94
  WS02004407WS02004409 CONDUIT   1456.63     0  01:10      2.83    0.52    0.94
  WS02004409WS02004410 CONDUIT   1499.37     0  01:10      2.07    1.94    1.00
  WS02004410WS02004411 CONDUIT   1369.72     0  01:11      2.04    1.87    1.00
  WS02004411WS02004412 CONDUIT   1278.81     0  01:33      1.82    1.82    1.00
  WS02004412WS02004413 CONDUIT   1286.12     0  01:11      1.78    0.86    1.00
  WS02004413WS02003067 CONDUIT   1278.63     0  01:32      1.99    0.55    0.76
  WS02006109WS02006110 CONDUIT   1327.43     0  01:09      2.64    2.55    1.00
  WS02006110WS02006113 CONDUIT   1330.92     0  01:09      2.65    1.21    1.00
  WS02006111WS02006112 CONDUIT   1285.92     0  01:09      2.56    0.61    1.00
  WS02006112WS02006115 CONDUIT   1428.59     0  01:09      1.82    0.84    1.00
  WS02006113WS02006111 CONDUIT   1336.62     0  01:09      2.91    1.60    1.00
  WS02006115WS02006116 CONDUIT   1449.40     0  01:09      1.85    1.86    1.00
  WS02006116WS02004401 CONDUIT   1471.06     0  01:09      1.87    2.03    1.00
  WS02006228WS02006109 CONDUIT   1320.92     0  01:09      2.63    5.77    1.00
  WS02006229WS02006228 CONDUIT   1317.81     0  01:09      2.62    4.36    1.00
  WS02006230WS02006229 CONDUIT   1005.86     0  01:34      2.61   22.38    1.00
  WS02006231WS02006230 CONDUIT    750.67     0  01:08      1.95   11.39    1.00
  WS02006232WS02006231 CONDUIT    749.80     0  01:08      1.97    1.57    1.00
  WS02006234WS02006232 CONDUIT    749.46     0  01:08      2.20    1.52    1.00
  WS02006235WS02006234 CONDUIT    766.27     0  01:08      2.04    8.08    1.00
  WS02006238WS02006235 CONDUIT    725.74     0  01:08      2.21    1.62    1.00
  WS02006239WS02006238 CONDUIT    726.00     0  01:08      2.38    2.32    1.00
  WS02006240WS02006239 CONDUIT    742.37     0  01:09      1.96    2.34    1.00
  WS02006242WS02006240 CONDUIT    486.67     0  01:09      1.28    1.93    1.00
  WS02006243WS02006242 CONDUIT    368.57     0  03:26      1.34    0.79    1.00
  WS02006245WS02006243 CONDUIT    434.66     0  01:09      1.39    1.29    1.00
  WS02006247WS02006245 CONDUIT    469.22     0  01:09      1.37    3.72    1.00
  WS02006248WS02006247 CONDUIT    483.45     0  01:09      1.38    1.05    1.00
  WS02006249WS02006248 CONDUIT    500.32     0  01:09      1.38    2.74    1.00
  WS02006251WS02006249 CONDUIT   1337.44     0  01:12      3.48    3.86    1.00
  WS02006252WS02006251 CONDUIT    607.24     0  01:05     25.27    2.23    1.00
  WS02006253WS02006251 CONDUIT   1456.78     0  01:33      3.79    4.37    1.00
  WS02006256WS02006235 CONDUIT    288.93     0  00:00      4.23    3.06    1.00
  WS02006280WS02006229 CONDUIT   2285.69     0  01:32      5.31    0.49    1.00
  WS02006284WS02006280 CONDUIT   2284.45     0  01:32      3.37    0.96    1.00
  WS02006287WS02006284 CONDUIT   2317.21     0  01:09      3.09    1.07    1.00
  WSF200WS02003060     CONDUIT   1515.76     0  01:12      3.34    0.34    0.51
  YS02001580YS02001583 CONDUIT    150.78     0  01:09      0.87    0.58    1.00
  YS02001583YS02001586 CONDUIT    180.85     0  01:09      0.87    0.27    1.00
  YS02001586YS02001590 CONDUIT    320.09     0  01:14      1.33    0.56    1.00
  YS02001590YS02001593 CONDUIT    319.74     0  01:14      1.13    2.01    1.00
  YS02001593YS02001596 CONDUIT    318.11     0  02:08      1.74    0.50    1.00
  YS02001596YS02001600 CONDUIT    318.13     0  01:14      1.26    0.62    1.00
  YS02001600YS02001601 CONDUIT    318.51     0  01:14      1.13    0.55    1.00
  YS02001601YS02001602 CONDUIT    606.57     0  01:09      2.15    2.19    1.00
  YS02001602YS02001605 CONDUIT    606.35     0  01:09      2.14   12.83    1.00
  YS02001605YS02001607 CONDUIT    606.27     0  01:09      2.14    3.32    1.00
  YS02001607YS02001610 CONDUIT    601.77     0  01:09      0.92    0.57    1.00
  YS02001610YS02001613 CONDUIT    571.56     0  01:09      0.83    0.66    1.00
  YS02001613YS02001616 CONDUIT    512.97     0  01:09      0.87    0.44    1.00
  YS02001616YS02001619 CONDUIT    491.38     0  02:53      0.92    0.85    1.00
  YS02001619YS02001622 CONDUIT    912.28     0  01:11      1.88    1.34    1.00
  YS02001622YS02001625 CONDUIT    911.90     0  01:11      1.25    0.49    1.00
  YS02001625YS02001629 CONDUIT    912.12     0  01:11      1.16    0.43    1.00
  YS02001629YS02163301 CONDUIT    912.27     0  01:11      1.16    1.12    1.00
  YS02001633YS02163601 CONDUIT   1394.48     0  01:12      1.78    1.46    1.00
  YS02001641YS02001644 CONDUIT   1392.60     0  01:12      1.77    4.50    1.00
  YS02001644YS02001647 CONDUIT   1834.81     0  01:12      2.35    1.08    1.00
  YS02001647YS02001649 CONDUIT   1825.64     0  01:12      2.36    0.96    1.00
  YS02001649YS02001757 CONDUIT   2244.49     0  01:12      2.86    1.36    1.00
  YS02001652YS02001649 CONDUIT    613.96     0  01:32      1.49    0.30    1.00
  YS02001655YS02001652 CONDUIT    614.18     0  01:32      1.94    0.30    1.00
  YS02001658YS02001655 CONDUIT    615.90     0  01:24      2.08    0.26    1.00
  YS02001661YS02001658 CONDUIT    663.29     0  01:15      2.34    0.26    0.92
  YS02001664YS02001661 CONDUIT    613.06     0  01:32      2.28    0.19    0.61
  YS02001745YS02001748 CONDUIT    648.39     0  01:20      2.23    0.25    0.82
  YS02001748YS02001751 CONDUIT    505.19     0  01:14      1.82    0.26    1.00
  YS02001751YS02001754 CONDUIT    407.91     0  01:23      1.78    0.20    1.00
  YS02001754YS02001757 CONDUIT    409.36     0  01:23      1.18    0.16    1.00
  YS02001757CaochengTiaoxuchi CONDUIT   3379.78     0  01:23      4.51    1.46    1.00
  YS02001759YS02001757 CONDUIT   1275.16     0  01:23      1.62    0.91    1.00
  YS02001762YS02001759 CONDUIT    773.74     0  01:23      0.99    0.89    1.00
  YS02001765YS02001762 CONDUIT    770.13     0  01:23      0.98    0.72    1.00
  YS02001767YS02001765 CONDUIT    766.39     0  01:23      0.98    0.96    1.00
  YS02001770YS02001767 CONDUIT    762.81     0  01:23      1.00    3.02    1.00
  YS02001774YS02001770 CONDUIT    318.25     0  01:13      0.81    0.20    1.00
  YS02001779YS02001774 CONDUIT    321.26     0  01:13      0.41    0.16    1.00
  YS02001783YS02001784 CONDUIT   1157.29     0  01:14      2.30    1.60    1.00
  YS02001784YS02001785 CONDUIT   1158.88     0  01:14      2.31    2.70    1.00
  YS02001786YS02001788 CONDUIT   1160.27     0  01:14      2.47    2.24    0.89
  YS02001788YS02001790 CONDUIT   1168.84     0  01:23      2.71    0.86    0.84
  YS02001790YS02001791 CONDUIT   1283.02     0  01:39      3.42    1.40    0.70
  YS02001791YS02001793 CONDUIT   1243.63     0  01:31      6.80    0.53    0.44
  YS02001793JiankangQianchi CONDUIT   1286.83     0  01:45      2.55    0.10    0.65
  YS02001882YS02001884 CONDUIT    112.58     0  01:09      0.47    0.13    1.00
  YS02001884YS02001887 CONDUIT    198.24     0  01:09      0.42    0.26    1.00
  YS02001887YS02001890 CONDUIT    519.96     0  01:30      0.66    0.89    1.00
  YS02001890YS02001895 CONDUIT    516.28     0  01:31      0.66    0.24    1.00
  YS02001895YS02001898 CONDUIT    516.15     0  01:30      0.78    0.90    1.00
  YS02001898YS02001901 CONDUIT    516.12     0  01:30      0.66    0.33    1.00
  YS02001901YS02001904 CONDUIT    516.46     0  01:32      0.71    0.80    1.00
  YS02001904YS02001907 CONDUIT    521.24     0  01:11      0.66    0.18    1.00
  YS02001907YS02006553 CONDUIT    783.90     0  02:14      0.87    0.92    1.00
  YS02001910YS02001907 CONDUIT   1099.27     0  01:32      1.40    0.62    1.00
  YS02001915YS02001910 CONDUIT   1099.49     0  01:32      1.40    0.55    1.00
  YS02001918YS02001915 CONDUIT    469.42     0  01:11      0.67    0.26    1.00
  YS02001920YS02001918 CONDUIT    436.60     0  01:13      0.77    0.42    1.00
  YS02001923YS02001920 CONDUIT    432.97     0  01:13      0.88    0.19    1.00
  YS02001926YS02001923 CONDUIT    429.40     0  01:12      0.98    0.61    1.00
  YS02001929YS02001926 CONDUIT    386.96     0  01:13      1.14    0.18    1.00
  YS02006553YS02006556 CONDUIT    783.89     0  02:14      1.00    0.67    1.00
  YS02006556YS02006558 CONDUIT    785.69     0  02:13      1.00    0.62    1.00
  YS02006558YS02006561 CONDUIT   1166.96     0  01:12      4.13    2.58    1.00
  YS02006561YS02001783 CONDUIT   1157.67     0  01:14      2.30    0.60    1.00
  YS02163301YS02001633 CONDUIT    912.10     0  01:11      1.16    0.86    1.00
  YS02163601YS02164001 CONDUIT   1394.40     0  01:12      1.78    1.24    1.00
  YS02164001YS02001641 CONDUIT   1393.11     0  01:11      1.77    1.90    1.00
  YSB1154YSB6556       CONDUIT    314.79     0  01:31      0.82    0.57    1.00
  YSB1171HS02004479    CONDUIT    442.62     0  01:12      0.88    0.29    1.00
  YSB1174YSB1171       CONDUIT    243.40     0  01:30      0.63    0.37    1.00
  YSB6556YSB1171       CONDUIT    315.02     0  01:31      0.82    0.32    1.00
  CC-R1                PUMP      1024.50     0  00:05              1.50
  CC-R2                PUMP      1024.50     0  00:05              1.50
  CC-S1                PUMP       300.00     0  01:05              1.50
  CC-S2                PUMP       300.00     0  00:05              1.50
  JK-R1                PUMP      1500.00     0  01:20              1.50
  JK-R2                PUMP      1500.00     0  01:15              1.50
  JK-S                 PUMP       450.00     0  00:20              1.50
  XR-1                 PUMP        95.00     0  00:00              1.00
  XR-2                 PUMP        95.00     0  00:00              1.00
  XR-3                 PUMP        95.00     0  00:00              1.00
  XR-4                 PUMP        95.00     0  00:00              1.00
  
  
  ***************************
  Flow Classification Summary
  ***************************
  
  -------------------------------------------------------------------------------------
                      Adjusted    ---------- Fraction of Time in Flow Class ---------- 
                       /Actual         Up    Down  Sub   Sup   Up    Down  Norm  Inlet 
  Conduit               Length    Dry  Dry   Dry   Crit  Crit  Crit  Crit  Ltd   Ctrl  
  -------------------------------------------------------------------------------------
  1                       1.00   0.00  0.00  0.00  0.00  1.00  0.00  0.00  0.50  0.00
  HS02004478WS02006287    1.00   0.10  0.00  0.00  0.74  0.17  0.00  0.00  0.56  0.00
  HS02004479HS02004480    1.00   0.05  0.00  0.00  0.95  0.00  0.00  0.00  0.09  0.00
  HS02004480HS02004478    1.00   0.09  0.00  0.00  0.69  0.00  0.00  0.22  0.00  0.00
  HS02004770HS02004777    1.00   0.00  0.09  0.00  0.91  0.00  0.00  0.00  0.00  0.00
  HS02004777HS02004785    1.00   0.00  0.00  0.00  1.00  0.00  0.00  0.00  0.09  0.00
  HS02004785HS02004788    1.00   0.00  0.00  0.00  1.00  0.00  0.00  0.00  0.00  0.00
  HS02004788HS02004792    1.00   0.00  0.00  0.00  0.99  0.01  0.00  0.00  0.78  0.00
  HS02004792HS02004799    1.00   0.00  0.00  0.00  0.98  0.02  0.00  0.00  0.74  0.00
  HS02004799HS02004480    1.00   0.00  0.05  0.00  0.90  0.00  0.04  0.00  0.00  0.00
  HS02004802HS02004478    1.00   0.09  0.00  0.00  0.91  0.00  0.00  0.00  0.00  0.00
  HS02004807HS02004802    1.00   0.09  0.00  0.00  0.90  0.00  0.00  0.00  0.00  0.00
  HS02004817HS02004807    1.00   0.00  0.09  0.00  0.91  0.00  0.00  0.00  0.01  0.00
  HS02004817HS02004824    1.00   0.00  0.00  0.00  1.00  0.00  0.00  0.00  0.73  0.00
  HS02004824HS02004830    1.00   0.00  0.00  0.00  1.00  0.00  0.00  0.00  0.00  0.00
  HS02004830HS02004837    1.00   0.00  0.00  0.00  1.00  0.00  0.00  0.00  0.74  0.00
  HS02004837HS02004842    1.00   0.00  0.00  0.00  1.00  0.00  0.00  0.00  0.11  0.00
  HS02004842HS02004848    1.00   0.00  0.09  0.00  0.91  0.00  0.00  0.00  0.51  0.00
  HS02004848HS02004852    1.00   0.09  0.00  0.00  0.91  0.00  0.00  0.00  0.62  0.00
  HS02004852HS02004856    1.00   0.09  0.00  0.00  0.91  0.00  0.00  0.00  0.60  0.00
  HS02004856HS02004862    1.00   0.00  0.10  0.00  0.90  0.00  0.00  0.00  0.63  0.00
  HS02004862HS02004870    1.00   0.00  0.00  0.00  1.00  0.00  0.00  0.00  0.01  0.00
  HS02004870HS02004876    1.00   0.00  0.00  0.00  0.99  0.01  0.00  0.00  0.73  0.00
  HS02004876HS02004881    1.00   0.04  0.00  0.00  0.87  0.09  0.00  0.00  0.00  0.00
  HS02004881HS02006253    1.00   0.03  0.03  0.00  0.46  0.03  0.00  0.45  0.07  0.00
  HS02004901HS02004770    1.00   0.09  0.00  0.00  0.91  0.00  0.00  0.00  0.00  0.00
  WS02001211WS02001212    1.00   0.00  0.04  0.00  0.96  0.00  0.00  0.00  0.00  0.00
  WS02001212WS02001213    1.00   0.04  0.00  0.00  0.54  0.00  0.42  0.00  0.00  0.00
  WS02001213WS02003059    1.00   0.00  0.00  0.00  0.99  0.00  0.00  0.00  0.00  0.00
  WS02003059WS02003060    1.00   0.00  0.00  0.00  1.00  0.00  0.00  0.00  0.03  0.00
  WS02003060WS02003069    1.00   0.00  0.00  0.00  0.99  0.01  0.00  0.00  0.45  0.00
  WS02003066WSF200        1.00   0.07  0.00  0.00  0.00  0.93  0.00  0.00  0.62  0.00
  WS02003067WS02003066    1.00   0.07  0.00  0.00  0.93  0.00  0.00  0.00  0.00  0.00
  WS02003069WS02003072    1.00   0.00  0.00  0.00  1.00  0.00  0.00  0.00  0.62  0.00
  WS02003072WS02003073    1.00   0.00  0.00  0.00  0.00  0.00  0.00  1.00  0.00  0.00
  WS02004138WS02004139    1.00   0.00  0.01  0.00  0.96  0.01  0.00  0.03  0.98  0.00
  WS02004139WS02001211    1.00   0.00  0.00  0.00  0.99  0.00  0.00  0.00  0.00  0.00
  WS02004401WS02004402    1.00   0.04  0.00  0.00  0.96  0.00  0.00  0.00  0.00  0.00
  WS02004402WS02004403    1.00   0.04  0.00  0.00  0.96  0.00  0.00  0.00  0.00  0.00
  WS02004403WS02004404    1.00   0.00  0.04  0.00  0.95  0.00  0.00  0.00  0.00  0.00
  WS02004404WS02004405    1.00   0.00  0.00  0.00  1.00  0.00  0.00  0.00  0.00  0.00
  WS02004405WS02004406    1.00   0.00  0.00  0.00  1.00  0.00  0.00  0.00  0.00  0.00
  WS02004406WS02004407    1.00   0.00  0.05  0.00  0.95  0.00  0.00  0.00  0.00  0.00
  WS02004407WS02004409    1.00   0.05  0.00  0.00  0.94  0.01  0.00  0.00  0.71  0.00
  WS02004409WS02004410    1.00   0.06  0.00  0.00  0.94  0.00  0.00  0.00  0.00  0.00
  WS02004410WS02004411    1.00   0.06  0.00  0.00  0.94  0.00  0.00  0.00  0.00  0.00
  WS02004411WS02004412    1.00   0.06  0.00  0.00  0.94  0.00  0.00  0.00  0.00  0.00
  WS02004412WS02004413    1.00   0.06  0.00  0.00  0.94  0.00  0.00  0.00  0.01  0.00
  WS02004413WS02003067    1.00   0.06  0.01  0.00  0.00  0.00  0.93  0.00  0.00  0.00
  WS02006109WS02006110    1.00   0.00  0.01  0.00  0.97  0.00  0.03  0.00  0.00  0.00
  WS02006110WS02006113    1.00   0.01  0.03  0.00  0.97  0.00  0.00  0.00  0.00  0.00
  WS02006111WS02006112    1.00   0.04  0.00  0.00  0.96  0.00  0.00  0.00  0.69  0.00
  WS02006112WS02006115    1.00   0.04  0.00  0.00  0.96  0.00  0.00  0.00  0.00  0.00
  WS02006113WS02006111    1.00   0.03  0.00  0.00  0.41  0.55  0.00  0.00  0.07  0.00
  WS02006115WS02006116    1.00   0.04  0.00  0.00  0.95  0.00  0.00  0.01  0.00  0.00
  WS02006116WS02004401    1.00   0.04  0.00  0.00  0.96  0.00  0.00  0.00  0.00  0.00
  WS02006228WS02006109    1.00   0.00  0.00  0.00  1.00  0.00  0.00  0.00  0.00  0.00
  WS02006229WS02006228    1.00   0.00  0.00  0.00  0.99  0.00  0.00  0.01  0.00  0.00
  WS02006230WS02006229    1.00   0.00  0.00  0.00  0.97  0.00  0.00  0.03  0.03  0.00
  WS02006231WS02006230    1.00   0.00  0.00  0.00  0.53  0.00  0.46  0.00  0.00  0.00
  WS02006232WS02006231    1.00   0.00  0.00  0.00  0.99  0.00  0.00  0.00  0.00  0.00
  WS02006234WS02006232    1.00   0.00  0.00  0.00  1.00  0.00  0.00  0.00  0.02  0.00
  WS02006235WS02006234    1.00   0.00  0.00  0.00  0.88  0.00  0.12  0.00  0.00  0.00
  WS02006238WS02006235    1.00   0.00  0.00  0.00  1.00  0.00  0.00  0.00  0.00  0.00
  WS02006239WS02006238    1.00   0.00  0.00  0.00  1.00  0.00  0.00  0.00  0.13  0.00
  WS02006240WS02006239    1.00   0.00  0.00  0.00  0.77  0.00  0.00  0.23  0.02  0.00
  WS02006242WS02006240    1.00   0.00  0.00  0.00  0.99  0.00  0.01  0.00  0.00  0.00
  WS02006243WS02006242    1.00   0.00  0.00  0.00  0.99  0.00  0.00  0.01  0.62  0.00
  WS02006245WS02006243    1.00   0.00  0.00  0.00  0.91  0.00  0.00  0.09  0.00  0.00
  WS02006247WS02006245    1.00   0.00  0.00  0.00  0.97  0.00  0.00  0.02  0.00  0.00
  WS02006248WS02006247    1.00   0.00  0.00  0.00  0.99  0.00  0.00  0.01  0.53  0.00
  WS02006249WS02006248    1.00   0.00  0.00  0.00  0.64  0.00  0.36  0.00  0.00  0.00
  WS02006251WS02006249    1.00   0.00  0.00  0.00  0.99  0.01  0.00  0.00  0.55  0.00
  WS02006252WS02006251    1.00   0.19  0.23  0.00  0.43  0.00  0.15  0.00  0.01  0.00
  WS02006253WS02006251    1.00   0.00  0.00  0.00  0.98  0.00  0.02  0.00  0.01  0.00
  WS02006256WS02006235    1.00   0.00  0.00  0.00  0.98  0.02  0.00  0.00  0.00  0.00
  WS02006280WS02006229    1.00   0.10  0.00  0.00  0.37  0.04  0.00  0.50  0.01  0.00
  WS02006284WS02006280    1.00   0.10  0.00  0.00  0.36  0.00  0.00  0.54  0.00  0.00
  WS02006287WS02006284    1.00   0.08  0.01  0.00  0.63  0.27  0.00  0.01  0.62  0.00
  WSF200WS02003060        1.00   0.00  0.07  0.00  0.43  0.49  0.00  0.00  0.58  0.00
  YS02001580YS02001583    1.00   0.11  0.37  0.00  0.52  0.00  0.00  0.00  0.62  0.00
  YS02001583YS02001586    1.00   0.24  0.17  0.00  0.59  0.00  0.00  0.00  0.62  0.00
  YS02001586YS02001590    1.00   0.09  0.00  0.00  0.68  0.02  0.00  0.21  0.26  0.00
  YS02001590YS02001593    1.00   0.09  0.00  0.00  0.37  0.00  0.53  0.00  0.00  0.00
  YS02001593YS02001596    1.00   0.09  0.00  0.00  0.38  0.01  0.00  0.52  0.01  0.00
  YS02001596YS02001600    1.00   0.09  0.00  0.00  0.43  0.01  0.00  0.47  0.02  0.00
  YS02001600YS02001601    1.00   0.09  0.00  0.00  0.91  0.00  0.00  0.00  0.54  0.00
  YS02001601YS02001602    1.00   0.09  0.00  0.00  0.91  0.00  0.00  0.00  0.00  0.00
  YS02001602YS02001605    1.00   0.09  0.00  0.00  0.91  0.00  0.00  0.00  0.00  0.00
  YS02001605YS02001607    1.00   0.09  0.00  0.00  0.91  0.00  0.00  0.00  0.00  0.00
  YS02001607YS02001610    1.00   0.09  0.00  0.00  0.91  0.00  0.00  0.00  0.00  0.00
  YS02001610YS02001613    1.00   0.09  0.00  0.00  0.91  0.00  0.00  0.00  0.00  0.00
  YS02001613YS02001616    1.00   0.09  0.00  0.00  0.91  0.00  0.00  0.00  0.00  0.00
  YS02001616YS02001619    1.00   0.09  0.00  0.00  0.91  0.00  0.00  0.00  0.00  0.00
  YS02001619YS02001622    1.00   0.09  0.00  0.00  0.90  0.01  0.00  0.00  0.26  0.00
  YS02001622YS02001625    1.00   0.09  0.00  0.00  0.90  0.00  0.00  0.00  0.00  0.00
  YS02001625YS02001629    1.00   0.09  0.01  0.00  0.39  0.00  0.51  0.00  0.00  0.00
  YS02001629YS02163301    1.00   0.09  0.00  0.00  0.90  0.00  0.00  0.00  0.00  0.00
  YS02001633YS02163601    1.00   0.00  0.01  0.00  0.99  0.00  0.00  0.00  0.12  0.00
  YS02001641YS02001644    1.00   0.00  0.00  0.00  1.00  0.00  0.00  0.00  0.00  0.00
  YS02001644YS02001647    1.00   0.00  0.10  0.00  0.90  0.00  0.00  0.00  0.00  0.00
  YS02001647YS02001649    1.00   0.00  0.09  0.00  0.57  0.33  0.00  0.00  0.54  0.00
  YS02001649YS02001757    1.00   0.00  0.00  0.00  0.65  0.35  0.00  0.00  0.43  0.00
  YS02001652YS02001649    1.00   0.00  0.00  0.00  0.99  0.01  0.00  0.00  0.67  0.00
  YS02001655YS02001652    1.00   0.00  0.00  0.00  0.42  0.01  0.00  0.57  0.04  0.00
  YS02001658YS02001655    1.00   0.00  0.09  0.00  0.71  0.20  0.00  0.00  0.63  0.00
  YS02001661YS02001658    1.00   0.09  0.00  0.00  0.51  0.39  0.00  0.00  0.68  0.00
  YS02001664YS02001661    1.00   0.09  0.00  0.00  0.72  0.19  0.00  0.00  0.87  0.00
  YS02001745YS02001748    1.00   0.00  0.00  0.00  0.28  0.03  0.00  0.69  0.06  0.00
  YS02001748YS02001751    1.00   0.00  0.00  0.00  0.84  0.16  0.00  0.00  0.75  0.00
  YS02001751YS02001754    1.00   0.00  0.00  0.00  0.37  0.00  0.00  0.62  0.01  0.00
  YS02001754YS02001757    1.00   0.00  0.00  0.00  1.00  0.00  0.00  0.00  0.74  0.00
  YS02001757CaochengTiaoxuchi    1.00   0.00  0.00  0.00  0.96  0.04  0.00  0.00  0.74  0.00
  YS02001759YS02001757    1.00   0.00  0.00  0.00  1.00  0.00  0.00  0.00  0.58  0.00
  YS02001762YS02001759    1.00   0.00  0.00  0.00  1.00  0.00  0.00  0.00  0.02  0.00
  YS02001765YS02001762    1.00   0.00  0.00  0.00  1.00  0.00  0.00  0.00  0.68  0.00
  YS02001767YS02001765    1.00   0.00  0.00  0.00  1.00  0.00  0.00  0.00  0.00  0.00
  YS02001770YS02001767    1.00   0.00  0.00  0.00  1.00  0.00  0.00  0.00  0.00  0.00
  YS02001774YS02001770    1.00   0.00  0.09  0.00  0.82  0.00  0.08  0.00  0.00  0.00
  YS02001779YS02001774    1.00   0.00  0.00  0.00  1.00  0.00  0.00  0.00  0.72  0.00
  YS02001783YS02001784    1.00   0.00  0.10  0.00  0.90  0.00  0.00  0.00  0.53  0.00
  YS02001784YS02001785    1.00   0.00  0.00  0.00  1.00  0.00  0.00  0.00  0.12  0.00
  YS02001786YS02001788    1.00   0.00  0.00  0.00  0.68  0.32  0.00  0.00  0.00  0.00
  YS02001788YS02001790    1.00   0.00  0.00  0.00  0.20  0.80  0.00  0.00  0.74  0.00
  YS02001790YS02001791    1.00   0.00  0.00  0.00  0.03  0.97  0.00  0.00  0.14  0.00
  YS02001791YS02001793    1.00   0.00  0.00  0.00  0.00  1.00  0.00  0.00  0.02  0.00
  YS02001793JiankangQianchi    1.00   0.00  0.00  0.00  0.87  0.13  0.00  0.00  0.95  0.00
  YS02001882YS02001884    1.00   0.09  0.00  0.00  0.91  0.00  0.00  0.00  0.00  0.00
  YS02001884YS02001887    1.00   0.06  0.02  0.00  0.91  0.00  0.00  0.00  0.00  0.00
  YS02001887YS02001890    1.00   0.00  0.00  0.00  0.95  0.00  0.05  0.00  0.00  0.00
  YS02001890YS02001895    1.00   0.00  0.09  0.00  0.90  0.00  0.00  0.00  0.00  0.00
  YS02001895YS02001898    1.00   0.10  0.00  0.00  0.90  0.00  0.00  0.00  0.00  0.00
  YS02001898YS02001901    1.00   0.10  0.00  0.00  0.90  0.00  0.00  0.00  0.00  0.00
  YS02001901YS02001904    1.00   0.10  0.00  0.00  0.90  0.00  0.00  0.00  0.00  0.00
  YS02001904YS02001907    1.00   0.00  0.09  0.00  0.90  0.00  0.00  0.00  0.00  0.00
  YS02001907YS02006553    1.00   0.00  0.04  0.00  0.96  0.00  0.00  0.00  0.00  0.00
  YS02001910YS02001907    1.00   0.00  0.00  0.00  0.95  0.00  0.00  0.04  0.10  0.00
  YS02001915YS02001910    1.00   0.00  0.00  0.00  0.97  0.03  0.00  0.00  0.10  0.00
  YS02001918YS02001915    1.00   0.00  0.00  0.00  0.96  0.04  0.00  0.00  0.63  0.00
  YS02001920YS02001918    1.00   0.00  0.00  0.00  1.00  0.00  0.00  0.00  0.00  0.00
  YS02001923YS02001920    1.00   0.00  0.00  0.00  1.00  0.00  0.00  0.00  0.82  0.00
  YS02001926YS02001923    1.00   0.00  0.07  0.00  0.21  0.00  0.72  0.00  0.00  0.00
  YS02001929YS02001926    1.00   0.00  0.09  0.00  0.91  0.00  0.00  0.00  0.73  0.00
  YS02006553YS02006556    1.00   0.02  0.00  0.00  0.98  0.00  0.00  0.00  0.03  0.00
  YS02006556YS02006558    1.00   0.00  0.00  0.00  1.00  0.00  0.00  0.00  0.00  0.00
  YS02006558YS02006561    1.00   0.10  0.00  0.00  0.19  0.71  0.00  0.00  0.13  0.00
  YS02006561YS02001783    1.00   0.10  0.00  0.00  0.26  0.64  0.00  0.00  0.61  0.00
  YS02163301YS02001633    1.00   0.00  0.09  0.00  0.91  0.00  0.00  0.00  0.00  0.00
  YS02163601YS02164001    1.00   0.00  0.07  0.00  0.93  0.00  0.00  0.00  0.00  0.00
  YS02164001YS02001641    1.00   0.01  0.07  0.00  0.93  0.00  0.00  0.00  0.05  0.00
  YSB1154YSB6556          1.00   0.09  0.00  0.00  0.91  0.00  0.00  0.00  0.00  0.00
  YSB1171HS02004479       1.00   0.05  0.00  0.00  0.94  0.00  0.00  0.01  0.08  0.00
  YSB1174YSB1171          1.00   0.06  0.02  0.00  0.92  0.00  0.00  0.00  0.00  0.00
  YSB6556YSB1171          1.00   0.05  0.04  0.00  0.91  0.00  0.00  0.00  0.00  0.00
  
  
  *************************
  Conduit Surcharge Summary
  *************************
  
  ----------------------------------------------------------------------------
                                                           Hours        Hours 
                         --------- Hours Full --------   Above Full   Capacity
  Conduit                Both Ends  Upstream  Dnstream   Normal Flow   Limited
  ----------------------------------------------------------------------------
  HS02004478WS02006287        1.38      1.38      1.58      0.01         0.01
  HS02004479HS02004480        1.61      1.61      1.64      0.01         0.01
  HS02004480HS02004478        1.49      1.61      1.49      2.25         1.49
  HS02004770HS02004777        1.48      1.48      1.48      0.27         0.21
  HS02004777HS02004785        1.42      1.42      1.48      0.01         0.01
  HS02004785HS02004788        1.41      1.42      1.41      2.11         1.33
  HS02004788HS02004792        1.41      1.41      1.56      0.01         0.01
  HS02004792HS02004799        1.56      1.56      1.90      0.01         0.02
  HS02004799HS02004480        1.61      1.61      1.90      1.95         0.01
  HS02004802HS02004478        1.51      1.51      1.62      0.01         0.01
  HS02004807HS02004802        1.58      1.58      1.61      0.78         0.79
  HS02004817HS02004807        1.58      1.58      2.07      0.01         0.01
  HS02004817HS02004824        1.40      1.40      2.07      0.01         0.01
  HS02004824HS02004830        1.36      1.36      1.40      0.01         0.01
  HS02004830HS02004837        1.31      1.31      1.36      0.01         0.01
  HS02004837HS02004842        1.31      1.31      1.47      0.01         0.01
  HS02004842HS02004848        1.27      1.27      1.47      0.01         0.01
  HS02004848HS02004852        1.27      1.27      1.31      0.02         0.01
  HS02004852HS02004856        1.31      1.31      1.33      0.02         0.01
  HS02004856HS02004862        1.29      1.29      1.34      0.01         0.01
  HS02004862HS02004870        1.34      1.34      1.36      0.55         0.47
  HS02004870HS02004876        1.36      1.36      1.48      0.01         0.01
  HS02004876HS02004881        1.45      1.48      1.45      2.16         1.45
  HS02004881HS02006253        1.45      1.45      2.26      0.01         0.01
  HS02004901HS02004770        1.48      1.48      1.49      0.61         0.01
  WS02003072WS02003073        0.01      0.01      0.01      2.75         0.01
  WS02004401WS02004402        2.26      2.26      2.30      2.12         2.08
  WS02004402WS02004403        2.30      2.30      2.30      2.25         2.23
  WS02004403WS02004404        2.30      2.30      2.34      0.01         0.04
  WS02004404WS02004405        2.33      2.34      2.33      3.31         2.33
  WS02004405WS02004406        2.32      2.33      2.32      2.41         2.32
  WS02004406WS02004407        0.01      0.01      2.32      0.01         0.01
  WS02004407WS02004409        0.01      0.01      1.92      0.01         0.01
  WS02004409WS02004410        1.90      1.92      1.90      2.16         1.90
  WS02004410WS02004411        1.88      1.90      1.88      2.22         1.88
  WS02004411WS02004412        1.84      1.88      1.84      2.24         1.84
  WS02004412WS02004413        1.84      1.84      2.04      0.01         0.01
  WS02004413WS02003067        0.01      0.01      2.04      0.01         0.01
  WS02006109WS02006110        2.38      2.38      2.51      2.39         0.01
  WS02006110WS02006113        2.06      2.06      2.50      0.68         0.01
  WS02006111WS02006112        2.04      2.04      2.63      0.01         0.01
  WS02006112WS02006115        2.17      2.17      2.43      0.01         0.01
  WS02006113WS02006111        2.05      2.06      2.05      2.11         2.05
  WS02006115WS02006116        2.18      2.18      2.19      2.17         2.13
  WS02006116WS02004401        2.25      2.25      2.26      2.24         2.21
  WS02006228WS02006109        2.50      2.50      2.50      2.74         2.50
  WS02006229WS02006228        2.49      2.50      2.49      2.60         2.49
  WS02006230WS02006229        2.51      2.53      2.51      3.68         0.52
  WS02006231WS02006230        2.31      2.32      2.34      3.13         1.97
  WS02006232WS02006231        2.33      2.33      2.39      0.04         0.31
  WS02006234WS02006232        2.34      2.34      2.39      0.03         0.02
  WS02006235WS02006234        2.32      2.33      2.34      2.82         1.95
  WS02006238WS02006235        2.35      2.35      2.36      0.02         0.63
  WS02006239WS02006238        2.33      2.34      2.35      2.08         0.16
  WS02006240WS02006239        2.31      2.31      2.32      2.08         0.15
  WS02006242WS02006240        2.31      2.31      2.32      2.24         1.90
  WS02006243WS02006242        2.30      2.30      2.31      0.01         0.01
  WS02006245WS02006243        2.29      2.29      2.30      0.14         0.13
  WS02006247WS02006245        2.29      2.29      2.29      2.48         0.31
  WS02006248WS02006247        2.29      2.29      2.29      0.01         0.01
  WS02006249WS02006248        2.29      2.29      2.29      0.46         0.01
  WS02006251WS02006249        2.28      2.29      2.29      2.34         2.23
  WS02006252WS02006251        2.37      2.38      2.52      1.48         0.01
  WS02006253WS02006251        2.29      2.29      2.31      1.95         0.01
  WS02006256WS02006235        2.88      2.94      7.27      0.19         0.01
  WS02006280WS02006229        1.89      1.89      1.93      0.01         0.01
  WS02006284WS02006280        1.64      1.64      1.88      0.01         0.01
  WS02006287WS02006284        1.48      1.48      1.68      0.88         0.88
  YS02001580YS02001583        1.57      1.57      1.72      0.01         0.01
  YS02001583YS02001586        1.58      1.58      1.87      0.01         0.01
  YS02001586YS02001590        1.88      1.88      1.92      0.01         0.01
  YS02001590YS02001593        1.92      1.92      1.93      1.95         0.01
  YS02001593YS02001596        1.93      1.93      1.98      0.01         0.01
  YS02001596YS02001600        2.00      2.00      2.03      0.01         0.01
  YS02001600YS02001601        2.06      2.06      2.20      0.01         0.01
  YS02001601YS02001602        2.14      2.14      2.23      2.05         0.01
  YS02001602YS02001605        2.12      2.12      2.14      2.74         0.01
  YS02001605YS02001607        2.09      2.12      2.09      2.17         2.09
  YS02001607YS02001610        1.86      1.86      1.87      0.01         0.01
  YS02001610YS02001613        1.85      1.85      1.87      0.01         0.01
  YS02001613YS02001616        1.82      1.82      1.85      0.01         0.01
  YS02001616YS02001619        1.81      1.81      1.82      0.01         0.03
  YS02001619YS02001622        1.80      1.81      1.81      1.95         1.74
  YS02001622YS02001625        1.81      1.81      1.93      0.01         0.01
  YS02001625YS02001629        1.62      1.62      1.93      0.01         0.01
  YS02001629YS02163301        1.92      1.92      1.92      0.53         0.49
  YS02001633YS02163601        1.93      1.93      1.94      0.85         0.83
  YS02001641YS02001644        1.86      1.88      1.86      2.24         1.78
  YS02001644YS02001647        1.52      1.52      1.86      0.04         0.01
  YS02001647YS02001649        1.52      1.52      1.73      0.01         0.01
  YS02001649YS02001757        1.72      1.73      1.77      0.28         0.31
  YS02001652YS02001649        1.41      1.41      1.73      0.01         0.01
  YS02001655YS02001652        1.12      1.12      1.39      0.01         0.01
  YS02001658YS02001655        0.70      0.70      1.12      0.01         0.01
  YS02001661YS02001658        0.01      0.01      0.70      0.01         0.01
  YS02001745YS02001748        0.01      0.01      0.11      0.01         0.01
  YS02001748YS02001751        0.46      0.46      0.91      0.01         0.01
  YS02001751YS02001754        0.91      0.91      1.28      0.01         0.01
  YS02001754YS02001757        1.33      1.33      1.77      0.01         0.01
  YS02001757CaochengTiaoxuchi        1.56      1.77      1.81      1.04         0.80
  YS02001759YS02001757        1.61      1.61      1.77      0.01         0.01
  YS02001762YS02001759        1.56      1.56      1.61      0.01         0.07
  YS02001765YS02001762        1.49      1.49      1.56      0.01         0.01
  YS02001767YS02001765        1.44      1.44      1.49      0.01         0.12
  YS02001770YS02001767        1.44      1.44      1.44      1.43         1.22
  YS02001774YS02001770        1.41      1.41      1.54      0.01         0.01
  YS02001779YS02001774        1.28      1.28      1.54      0.01         0.01
  YS02001783YS02001784        1.35      1.38      1.35      1.57         1.35
  YS02001784YS02001785        1.11      1.35      1.11      1.96         1.11
  YS02001786YS02001788        0.01      1.11      0.01      1.90         0.01
  YS02001790YS02001791        0.01      0.01      0.01      1.31         0.01
  YS02001793JiankangQianchi        0.01      0.01      7.31      0.01         0.01
  YS02001882YS02001884        1.26      1.26      1.30      0.01         0.01
  YS02001884YS02001887        1.35      1.35      1.37      0.01         0.01
  YS02001887YS02001890        1.39      1.39      1.40      0.01         0.01
  YS02001890YS02001895        1.23      1.23      1.42      0.01         0.01
  YS02001895YS02001898        1.21      1.21      1.23      0.01         0.01
  YS02001898YS02001901        1.24      1.24      1.35      0.01         0.01
  YS02001901YS02001904        1.33      1.33      1.35      0.01         0.01
  YS02001904YS02001907        1.33      1.33      1.89      0.01         0.01
  YS02001907YS02006553        1.96      1.96      1.99      0.01         0.01
  YS02001910YS02001907        1.42      1.42      1.86      0.01         0.01
  YS02001915YS02001910        1.27      1.27      1.42      0.01         0.01
  YS02001918YS02001915        1.09      1.09      1.27      0.01         0.01
  YS02001920YS02001918        1.09      1.09      1.11      0.01         0.01
  YS02001923YS02001920        1.02      1.02      1.11      0.01         0.01
  YS02001926YS02001923        0.01      0.01      0.01      0.01         0.01
  YS02001929YS02001926        0.01      0.01      0.01      0.01         0.01
  YS02006553YS02006556        1.53      1.53      1.89      0.01         0.01
  YS02006556YS02006558        1.63      1.63      1.90      0.01         0.01
  YS02006558YS02006561        1.14      1.51      1.14      1.94         1.14
  YS02006561YS02001783        1.04      1.04      1.38      0.01         0.01
  YS02163301YS02001633        1.92      1.92      1.94      0.01         0.01
  YS02163601YS02164001        1.89      1.89      1.94      0.06         0.01
  YS02164001YS02001641        1.88      1.89      1.88      1.25         1.14
  YSB1154YSB6556              1.76      1.76      1.95      0.01         0.01
  YSB1171HS02004479           1.55      1.55      1.95      0.01         0.01
  YSB1174YSB1171              1.92      1.92      2.03      0.01         0.01
  YSB6556YSB1171              1.76      1.76      2.08      0.01         0.01
  
  
  ***************
  Pumping Summary
  ***************
  
  ---------------------------------------------------------------------------------------------------------
                                                  Min       Avg       Max     Total     Power    % Time Off
                        Percent   Number of      Flow      Flow      Flow    Volume     Usage    Pump Curve
  Pump                 Utilized   Start-Ups       LPS       LPS       LPS  10^6 ltr     Kw-hr    Low   High
  ---------------------------------------------------------------------------------------------------------
  CC-R1                   27.75           6      0.00    770.33   1024.50     6.054    110.82    0.0   22.9
  CC-R2                   30.56          34      0.00   1019.38   1024.50     8.913    163.47    0.0   26.0
  CC-S1                   28.69          33      0.00    288.80    300.00     2.359     18.03    0.0    0.0
  CC-S2                   30.34          21      0.00    298.38    300.00     2.591     19.95    0.0    0.0
  JK-R1                    2.30          17      0.00   1167.08   1500.00     0.736      7.23    0.0    0.0
  JK-R2                   13.47          40      0.00   1495.37   1500.00     5.797     49.93    0.0    0.0
  JK-S                    10.63          27      0.00    362.62    450.00     1.049     17.55    0.0    0.0
  XR-1                    97.91           2      0.00     95.00     95.00     2.679      9.61    0.0    0.0
  XR-2                    93.94           2      0.00     95.00     95.00     2.570      8.77    0.0    0.0
  XR-3                     0.00           1      0.00     95.00     95.00     0.000      0.00    0.0    0.0
  XR-4                     0.00           1      0.00     95.00     95.00     0.000      0.00    0.0    0.0
  

  Analysis begun on:  Tue Jul 18 18:46:29 2023
  Analysis ended on:  Tue Jul 18 18:46:37 2023
  Total elapsed time: 00:00:08