
  OWA STORM WATER MANAGEMENT MODEL - VERSION v5.1.14 (OWA 2022-07-31)
  --------------------------------------------------------------

  WARNING 04: minimum elevation drop used for Conduit WS02004404WS02004405
  WARNING 03: negative offset ignored for Link YS02001904YS02001907
  
  *********************************************************
  NOTE: The summary statistics displayed in this report are
  based on results found at every computational time step,  
  not just on results from each reporting time step.
  *********************************************************
  
  ****************
  Analysis Options
  ****************
  Flow Units ............... LPS
  Process Models:
    Rainfall/Runoff ........ YES
    RDII ................... NO
    Snowmelt ............... NO
    Groundwater ............ NO
    Flow Routing ........... YES
    Ponding Allowed ........ NO
    Water Quality .......... NO
  Infiltration Method ...... HORTON
  Flow Routing Method ...... DYNWAVE
  Surcharge Method ......... EXTRAN
  Starting Date ............ 08/28/2015 08:00:00
  Ending Date .............. 08/28/2015 16:00:00
  Antecedent Dry Days ...... 8.0
  Report Time Step ......... 00:01:00
  Wet Time Step ............ 00:01:00
  Dry Time Step ............ 00:01:00
  Routing Time Step ........ 30.00 sec
  Variable Time Step ....... YES
  Maximum Trials ........... 8
  Number of Threads ........ 4
  Head Tolerance ........... 0.001500 m
  
  
  **************************        Volume         Depth
  Runoff Quantity Continuity     hectare-m            mm
  **************************     ---------       -------
  Total Precipitation ......         2.491        41.115
  Evaporation Loss .........         0.000         0.000
  Infiltration Loss ........         0.239         3.953
  Surface Runoff ...........         2.190        36.159
  Final Storage ............         0.061         1.008
  Continuity Error (%) .....        -0.011
  
  
  **************************        Volume        Volume
  Flow Routing Continuity        hectare-m      10^6 ltr
  **************************     ---------     ---------
  Dry Weather Inflow .......         0.630         6.296
  Wet Weather Inflow .......         2.190        21.897
  Groundwater Inflow .......         0.000         0.000
  RDII Inflow ..............         0.000         0.000
  External Inflow ..........         0.105         1.045
  External Outflow .........         2.558        25.576
  Flooding Loss ............         0.356         3.560
  Evaporation Loss .........         0.000         0.000
  Exfiltration Loss ........         0.000         0.000
  Initial Stored Volume ....         0.303         3.031
  Final Stored Volume ......         0.321         3.213
  Continuity Error (%) .....        -0.249
  
  
  *************************
  Highest Continuity Errors
  *************************
  Node HS02004842 (7.71%)
  Node YS02001774 (4.63%)
  Node YS02001884 (3.51%)
  Node YS02001583 (-2.27%)
  Node HS02004817 (1.51%)
  
  
  ***************************
  Time-Step Critical Elements
  ***************************
  Link WS02006280WS02006229 (55.95%)
  Link YS02006556YS02006558 (9.46%)
  Link WS02006252WS02006251 (9.39%)
  Link WS02006238WS02006235 (6.44%)
  Link WS02004404WS02004405 (4.15%)
  
  
  ********************************
  Highest Flow Instability Indexes
  ********************************
  Link YS02006558YS02006561 (22)
  Link YS02006556YS02006558 (17)
  Link YS02001790YS02001791 (17)
  Link WS02006113WS02006111 (15)
  Link WS02006229WS02006228 (14)
  
  
  *************************
  Routing Time Step Summary
  *************************
  Minimum Time Step           :     0.00 sec
  Average Time Step           :     2.43 sec
  Maximum Time Step           :     6.46 sec
  Percent in Steady State     :     0.00
  Average Iterations per Step :     2.96
  Percent Not Converging      :     9.30
  
  
  ***************************
  Subcatchment Runoff Summary
  ***************************
  
  ------------------------------------------------------------------------------------------------------------------------------
                            Total      Total      Total      Total     Imperv       Perv      Total       Total     Peak  Runoff
                           Precip      Runon       Evap      Infil     Runoff     Runoff     Runoff      Runoff   Runoff   Coeff
  Subcatchment                 mm         mm         mm         mm         mm         mm         mm    10^6 ltr      LPS
  ------------------------------------------------------------------------------------------------------------------------------
  sub0                      26.57       0.00       0.00       1.03      23.45       0.83      24.27        0.02     3.92   0.914
  sub1                      26.57       0.00       0.00       1.74      22.39       1.18      23.57        0.16    27.47   0.887
  sub10                     26.57       0.00       0.00       1.23      23.15       0.89      24.04        0.27    47.17   0.905
  sub11                     26.57       0.00       0.00       1.22      23.17       0.91      24.08        0.28    52.00   0.906
  sub12                     26.57       0.00       0.00       1.98      21.93       1.47      23.40        0.20    38.94   0.881
  sub14                     26.57       0.00       0.00       1.39      22.91       1.00      23.91        0.23    41.28   0.900
  sub15                     26.57       0.00       0.00       5.19      17.62       2.78      20.39        0.35    58.15   0.768
  sub16                     26.57       0.00       0.00       5.48      16.88       3.29      20.17        0.21    35.60   0.759
  sub17                     26.57       0.00       0.00       5.33      17.13       3.17      20.30        0.17    29.34   0.764
  sub2                      26.57       0.00       0.00       7.01      15.83       2.82      18.65        0.17    27.20   0.702
  sub22                     26.57       0.00       0.00       7.72      14.36       3.71      18.06        1.14   179.66   0.680
  sub23                     26.57       0.00       0.00       6.41      15.87       3.42      19.28        0.92   149.90   0.726
  sub3                      26.57       0.00       0.00       7.34      15.79       2.49      18.28        0.41    62.22   0.688
  sub4                      26.57       0.00       0.00       1.88      22.23       1.04      23.27        0.49    75.33   0.876
  sub5                      26.57       0.00       0.00       1.08      23.39       0.78      24.18        0.27    48.29   0.910
  sub60                     53.13       0.00       0.00       1.91      45.55       4.46      50.01        0.66   130.98   0.941
  sub61                     53.14       0.00       0.00       2.77      42.96       6.26      49.22        0.90   178.55   0.926
  sub62                     53.14       0.00       0.00       1.27      47.59       2.98      50.57        1.39   268.34   0.952
  sub63                     53.14       0.00       0.00       5.09      36.75      10.32      47.07        1.07   197.10   0.886
  sub64                     53.13       0.00       0.00       2.58      43.95       5.39      49.34        1.19   219.13   0.929
  sub65                     53.13       0.00       0.00       2.23      44.97       4.68      49.64        1.37   248.84   0.934
  sub66                     53.14       0.00       0.00       6.11      36.64       9.30      45.94        2.14   345.44   0.865
  sub67                     53.14       0.00       0.00       1.22      47.63       3.03      50.66        0.94   191.52   0.953
  sub68                     53.13       0.00       0.00       2.30      44.50       5.14      49.64        1.37   266.42   0.934
  sub69                     53.14       0.00       0.00       2.06      45.05       5.91      50.95        1.89   342.07   0.959
  sub7                      26.57       0.00       0.00       1.37      22.92       1.02      23.94        0.08    15.17   0.901
  sub70                     53.13       0.00       0.00       6.51      34.90      11.55      46.45        1.34   205.85   0.874
  sub71                     53.14       0.00       0.00       1.31      47.55       2.94      50.49        1.32   243.80   0.950
  sub72                     53.14       0.00       0.00       1.16      48.00       2.56      50.56        0.70   120.82   0.952
  sub8                      26.57       0.00       0.00       1.38      22.91       1.01      23.92        0.15    28.03   0.900
  sub9                      26.57       0.00       0.00       1.39      22.91       1.01      23.92        0.12    20.96   0.900
  
  
  ******************
  Node Depth Summary
  ******************
  
  ---------------------------------------------------------------------------------
                                 Average  Maximum  Maximum  Time of Max    Reported
                                   Depth    Depth      HGL   Occurrence   Max Depth
  Node                 Type       Meters   Meters   Meters  days hr:min      Meters
  ---------------------------------------------------------------------------------
  HS02004478           JUNCTION     0.13     0.29     9.52     0  01:46        0.29
  HS02004479           JUNCTION     0.21     0.43     9.63     0  01:46        0.43
  HS02004480           JUNCTION     0.18     0.39     9.63     0  01:46        0.39
  HS02004770           JUNCTION     0.20     0.37    10.20     0  01:46        0.37
  HS02004777           JUNCTION     0.22     0.39    10.19     0  01:46        0.39
  HS02004785           JUNCTION     0.11     0.25    10.15     0  01:46        0.25
  HS02004788           JUNCTION     0.07     0.16    10.06     0  01:46        0.16
  HS02004792           JUNCTION     0.10     0.22     9.75     0  01:46        0.22
  HS02004799           JUNCTION     0.24     0.48     9.69     0  01:46        0.48
  HS02004802           JUNCTION     0.23     0.42     9.54     0  01:46        0.42
  HS02004807           JUNCTION     0.20     0.39     9.56     0  01:46        0.39
  HS02004817           JUNCTION     0.50     0.72     9.56     0  01:46        0.72
  HS02004824           JUNCTION     0.06     0.15     9.55     0  01:46        0.15
  HS02004830           JUNCTION     0.06     0.12     9.59     0  01:46        0.12
  HS02004837           JUNCTION     0.05     0.09     9.67     0  01:45        0.09
  HS02004842           JUNCTION     0.34     0.41     9.68     0  01:45        0.41
  HS02004848           JUNCTION     0.03     0.07     9.68     0  01:46        0.07
  HS02004852           JUNCTION     0.03     0.08     9.59     0  01:46        0.08
  HS02004856           JUNCTION     0.10     0.16     9.58     0  01:46        0.16
  HS02004862           JUNCTION     0.05     0.12     9.50     0  01:46        0.12
  HS02004870           JUNCTION     0.04     0.10     9.39     0  01:45        0.10
  HS02004876           JUNCTION     0.08     0.17     9.20     0  01:45        0.17
  HS02004881           JUNCTION     0.02     0.08     9.11     0  01:30        0.06
  HS02004901           JUNCTION     0.20     0.38    10.20     0  01:45        0.38
  WS02001211           JUNCTION     0.63     0.72     5.56     0  01:56        0.72
  WS02001212           JUNCTION     0.37     0.48     5.54     0  01:54        0.48
  WS02001213           JUNCTION     0.59     0.77     5.53     0  01:54        0.77
  WS02003059           JUNCTION     0.66     0.84     5.53     0  01:47        0.84
  WS02003060           JUNCTION     0.38     0.59     5.52     0  01:46        0.59
  WS02003066           JUNCTION     0.23     0.39     5.94     0  01:46        0.39
  WS02003067           JUNCTION     0.55     0.83     6.15     0  01:46        0.83
  WS02003069           JUNCTION     0.43     0.66     5.25     0  01:47        0.66
  WS02003072           JUNCTION     0.49     0.71     5.08     0  01:54        0.71
  WS02003073           JUNCTION     0.29     0.44     4.51     0  01:55        0.44
  WS02004138           JUNCTION     0.13     0.14     7.39     0  00:29        0.14
  WS02004139           JUNCTION     0.56     0.66     5.57     0  01:56        0.66
  WS02004401           JUNCTION     0.74     1.32     7.32     0  01:27        1.27
  WS02004402           JUNCTION     0.76     1.30     7.26     0  01:27        1.25
  WS02004403           JUNCTION     0.77     1.27     7.20     0  01:27        1.22
  WS02004404           JUNCTION     0.83     1.32     7.17     0  01:27        1.26
  WS02004405           JUNCTION     0.82     1.29     7.14     0  01:27        1.23
  WS02004406           JUNCTION     0.81     1.22     7.05     0  01:27        1.17
  WS02004407           JUNCTION     0.22     0.40     6.72     0  01:45        0.40
  WS02004409           JUNCTION     0.52     0.98     6.75     0  01:45        0.98
  WS02004410           JUNCTION     0.53     0.97     6.69     0  01:45        0.96
  WS02004411           JUNCTION     0.54     0.95     6.63     0  01:45        0.95
  WS02004412           JUNCTION     0.55     0.92     6.56     0  01:46        0.92
  WS02004413           JUNCTION     0.69     1.03     6.50     0  01:46        1.03
  WS02006109           JUNCTION     0.88     1.77     8.39     0  01:45        1.76
  WS02006110           JUNCTION     0.82     1.55     8.13     0  01:20        1.53
  WS02006111           JUNCTION     0.37     1.03     7.74     0  01:27        0.94
  WS02006112           JUNCTION     0.94     1.68     7.56     0  01:27        1.61
  WS02006113           JUNCTION     0.42     1.08     7.97     0  01:27        1.00
  WS02006115           JUNCTION     0.66     1.33     7.47     0  01:27        1.26
  WS02006116           JUNCTION     0.73     1.36     7.40     0  01:27        1.30
  WS02006228           JUNCTION     0.93     1.95     8.60     0  01:45        1.94
  WS02006229           JUNCTION     0.94     2.03     8.72     0  01:45        2.03
  WS02006230           JUNCTION     0.91     2.01     8.75     0  01:50        1.99
  WS02006231           JUNCTION     0.65     2.24     9.36     0  01:20        1.68
  WS02006232           JUNCTION     0.76     2.00     9.03     0  01:50        1.86
  WS02006234           JUNCTION     0.66     1.96     9.12     0  01:50        1.84
  WS02006235           JUNCTION     0.68     2.00     9.16     0  01:50        1.88
  WS02006238           JUNCTION     0.71     2.04     9.19     0  01:50        1.90
  WS02006239           JUNCTION     0.66     1.92     9.13     0  01:20        1.80
  WS02006240           JUNCTION     0.62     1.84     9.14     0  01:20        1.66
  WS02006242           JUNCTION     0.67     1.55     8.82     0  01:21        1.55
  WS02006243           JUNCTION     0.57     1.48     8.90     0  01:24        1.39
  WS02006245           JUNCTION     0.56     1.33     8.81     0  01:50        1.29
  WS02006247           JUNCTION     0.57     1.26     8.76     0  01:50        1.24
  WS02006248           JUNCTION     0.52     1.10     8.69     0  01:24        1.10
  WS02006249           JUNCTION     0.54     1.09     8.69     0  01:17        1.09
  WS02006251           JUNCTION     0.62     1.74     9.41     0  01:30        1.37
  WS02006252           JUNCTION     0.46     1.50     9.74     0  00:00        1.08
  WS02006253           JUNCTION     0.65     1.68     9.33     0  01:30        1.41
  WS02006256           JUNCTION     1.05     2.35     9.28     0  00:00        2.35
  WS02006280           JUNCTION     0.14     0.34     8.61     0  01:47        0.34
  WS02006284           JUNCTION     0.45     0.66     9.06     0  01:47        0.66
  WS02006287           JUNCTION     0.20     0.41     9.36     0  01:46        0.41
  WSF200               JUNCTION     0.23     0.43     5.67     0  01:46        0.43
  YS02001580           JUNCTION     0.05     0.54     9.08     0  01:31        0.53
  YS02001583           JUNCTION     0.09     0.58     9.08     0  01:31        0.57
  YS02001586           JUNCTION     0.20     0.91     9.09     0  01:32        0.91
  YS02001590           JUNCTION     0.34     1.20     9.06     0  01:38        1.20
  YS02001593           JUNCTION     0.27     1.17     9.03     0  01:38        1.17
  YS02001596           JUNCTION     0.44     1.57     8.99     0  01:38        1.57
  YS02001600           JUNCTION     0.56     1.82     8.95     0  01:38        1.82
  YS02001601           JUNCTION     0.76     2.06     8.90     0  01:30        2.06
  YS02001602           JUNCTION     0.65     1.80     8.70     0  01:45        1.79
  YS02001605           JUNCTION     0.57     1.56     8.46     0  01:30        1.56
  YS02001607           JUNCTION     0.50     1.18     8.03     0  01:44        1.17
  YS02001610           JUNCTION     0.54     1.22     8.02     0  01:44        1.21
  YS02001613           JUNCTION     0.49     1.16     8.00     0  01:45        1.16
  YS02001616           JUNCTION     0.42     1.07     7.98     0  01:44        1.07
  YS02001619           JUNCTION     0.40     1.04     7.97     0  01:44        1.04
  YS02001622           JUNCTION     0.39     1.02     7.93     0  01:44        1.02
  YS02001625           JUNCTION     0.65     1.27     7.87     0  01:45        1.26
  YS02001629           JUNCTION     0.54     1.26     7.81     0  01:31        1.26
  YS02001633           JUNCTION     0.60     1.29     7.74     0  01:41        1.28
  YS02001641           JUNCTION     0.56     1.10     7.54     0  01:44        1.09
  YS02001644           JUNCTION     0.55     1.04     7.47     0  01:31        1.03
  YS02001647           JUNCTION     0.29     0.66     7.27     0  01:44        0.66
  YS02001649           JUNCTION     0.32     0.74     7.13     0  01:45        0.74
  YS02001652           JUNCTION     0.19     0.54     7.13     0  01:45        0.54
  YS02001655           JUNCTION     0.09     0.26     7.11     0  01:45        0.26
  YS02001658           JUNCTION     0.08     0.20     7.34     0  01:28        0.20
  YS02001661           JUNCTION     0.14     0.26     7.66     0  01:28        0.26
  YS02001664           JUNCTION     0.07     0.17     8.09     0  01:28        0.17
  YS02001745           JUNCTION     0.06     0.15     7.67     0  01:26        0.15
  YS02001748           JUNCTION     0.07     0.17     7.25     0  01:27        0.17
  YS02001751           JUNCTION     0.07     0.17     7.05     0  01:23        0.17
  YS02001754           JUNCTION     0.12     0.40     7.00     0  01:45        0.40
  YS02001757           JUNCTION     0.32     0.75     7.01     0  01:45        0.75
  YS02001759           JUNCTION     0.25     0.65     7.01     0  01:45        0.65
  YS02001762           JUNCTION     0.24     0.62     7.02     0  01:46        0.62
  YS02001765           JUNCTION     0.21     0.57     7.02     0  01:46        0.57
  YS02001767           JUNCTION     0.20     0.54     7.03     0  01:46        0.54
  YS02001770           JUNCTION     0.22     0.55     7.04     0  01:46        0.55
  YS02001774           JUNCTION     0.28     0.62     7.04     0  01:45        0.62
  YS02001779           JUNCTION     0.10     0.36     7.04     0  01:46        0.36
  YS02001783           JUNCTION     0.29     0.71     6.85     0  01:34        0.71
  YS02001784           JUNCTION     0.31     0.71     6.78     0  01:34        0.71
  YS02001786           JUNCTION     0.26     0.58     6.61     0  01:34        0.58
  YS02001788           JUNCTION     0.20     0.46     6.44     0  01:34        0.46
  YS02001790           JUNCTION     0.24     0.55     6.19     0  01:34        0.55
  YS02001791           JUNCTION     0.15     0.33     5.80     0  01:35        0.33
  YS02001793           JUNCTION     0.08     0.17     5.00     0  01:35        0.17
  YS02001882           JUNCTION     0.32     0.74     7.46     0  01:33        0.74
  YS02001884           JUNCTION     0.41     0.83     7.45     0  01:33        0.83
  YS02001887           JUNCTION     0.49     0.91     7.45     0  01:33        0.91
  YS02001890           JUNCTION     0.52     0.94     7.45     0  01:33        0.94
  YS02001895           JUNCTION     0.29     0.70     7.45     0  01:33        0.70
  YS02001898           JUNCTION     0.30     0.72     7.45     0  01:34        0.71
  YS02001901           JUNCTION     0.41     0.84     7.45     0  01:33        0.84
  YS02001904           JUNCTION     0.39     0.81     7.44     0  01:32        0.81
  YS02001907           JUNCTION     0.71     1.16     7.45     0  01:33        1.15
  YS02001910           JUNCTION     0.51     0.96     7.47     0  01:33        0.95
  YS02001915           JUNCTION     0.32     0.73     7.45     0  01:34        0.73
  YS02001918           JUNCTION     0.12     0.38     7.44     0  01:34        0.38
  YS02001920           JUNCTION     0.21     0.44     7.45     0  01:35        0.44
  YS02001923           JUNCTION     0.07     0.17     7.43     0  01:33        0.17
  YS02001926           JUNCTION     0.15     0.29     7.74     0  01:31        0.29
  YS02001929           JUNCTION     0.07     0.16     7.86     0  01:31        0.16
  YS02006553           JUNCTION     0.71     1.15     7.44     0  01:33        1.15
  YS02006556           JUNCTION     0.68     1.11     7.42     0  01:35        1.11
  YS02006558           JUNCTION     0.73     1.15     7.42     0  01:35        1.14
  YS02006561           JUNCTION     0.16     0.39     7.05     0  01:33        0.39
  YS02163301           JUNCTION     0.56     1.27     7.78     0  01:45        1.26
  YS02163601           JUNCTION     0.63     1.24     7.64     0  01:44        1.23
  YS02164001           JUNCTION     0.55     1.12     7.58     0  01:44        1.12
  YSB1154              JUNCTION     0.35     0.58     9.64     0  01:46        0.58
  YSB1171              JUNCTION     0.49     0.73     9.64     0  01:46        0.73
  YSB1174              JUNCTION     0.30     0.53     9.64     0  01:46        0.53
  YSB6556              JUNCTION     0.25     0.47     9.64     0  01:46        0.47
  CC-1                 OUTFALL      0.00     0.00     0.00     0  00:00        0.00
  CC-2                 OUTFALL      0.00     0.00     0.00     0  00:00        0.00
  JK-1                 OUTFALL      0.00     0.00     0.00     0  00:00        0.00
  JK-2                 OUTFALL      0.00     0.00     0.00     0  00:00        0.00
  WSC                  OUTFALL      0.29     0.44     1.11     0  01:55        0.44
  CC-storage           STORAGE      0.65     0.99     6.49     0  02:19        0.99
  JK-storage           STORAGE      1.57     4.21     5.01     0  01:44        4.14
  XR-storage           STORAGE      7.80     9.26     7.26     0  08:00        9.26
  
  
  *******************
  Node Inflow Summary
  *******************
  
  -------------------------------------------------------------------------------------------------
                                  Maximum  Maximum                  Lateral       Total        Flow
                                  Lateral    Total  Time of Max      Inflow      Inflow     Balance
                                   Inflow   Inflow   Occurrence      Volume      Volume       Error
  Node                 Type           LPS      LPS  days hr:min    10^6 ltr    10^6 ltr     Percent
  -------------------------------------------------------------------------------------------------
  HS02004478           JUNCTION      0.00   743.45     0  01:46           0        4.72       0.006
  HS02004479           JUNCTION      0.00    86.16     0  01:31           0       0.487       0.152
  HS02004480           JUNCTION      0.00   547.46     0  01:46           0        3.37       0.022
  HS02004770           JUNCTION    149.90   185.32     0  01:45        0.92        1.13       0.274
  HS02004777           JUNCTION      0.03   185.05     0  01:45    0.000864        1.13       0.465
  HS02004785           JUNCTION      0.15   185.06     0  01:46     0.00432        1.13       0.045
  HS02004788           JUNCTION     59.82   244.53     0  01:46       0.399        1.52       0.026
  HS02004792           JUNCTION    179.94   423.97     0  01:46        1.15        2.67       0.016
  HS02004799           JUNCTION     41.28   463.77     0  01:46       0.228         2.9       0.115
  HS02004802           JUNCTION      0.00   196.31     0  01:47           0        1.36       0.282
  HS02004807           JUNCTION     52.00   196.74     0  01:46        0.28        1.36       0.326
  HS02004817           JUNCTION      0.60   148.28     0  01:48      0.0173         1.1       1.536
  HS02004824           JUNCTION     75.38   147.03     0  01:47       0.487        1.08       0.051
  HS02004830           JUNCTION      0.15    71.76     0  01:45     0.00432       0.594       0.209
  HS02004837           JUNCTION     53.52    71.65     0  01:45       0.448       0.604       0.136
  HS02004842           JUNCTION      0.00    20.85     0  02:15           0       0.169       8.354
  HS02004848           JUNCTION     62.22    62.22     0  01:46       0.411       0.411       0.013
  HS02004852           JUNCTION      0.00    43.36     0  01:46           0       0.256       0.022
  HS02004856           JUNCTION     20.96    63.54     0  01:45       0.115       0.371       0.387
  HS02004862           JUNCTION     27.40    90.90     0  01:46        0.18       0.549       0.031
  HS02004870           JUNCTION     28.03   117.73     0  01:45       0.153       0.701       0.017
  HS02004876           JUNCTION     27.47   145.04     0  01:45       0.157       0.858       0.062
  HS02004881           JUNCTION     15.17   159.28     0  01:45      0.0807       0.938       0.026
  HS02004901           JUNCTION     35.60    35.60     0  01:45       0.211       0.211       0.841
  WS02001211           JUNCTION      7.35   205.96     0  01:50       0.212        5.44       0.612
  WS02001212           JUNCTION      0.00   207.03     0  01:44           0        5.41       0.290
  WS02001213           JUNCTION      0.00   208.68     0  03:24           0        5.39       0.332
  WS02003059           JUNCTION      0.00   213.88     0  03:26           0        5.38       0.595
  WS02003060           JUNCTION     16.53  1178.85     0  01:46       0.476        13.3       0.110
  WS02003066           JUNCTION      0.00   964.40     0  01:46           0        7.47       0.020
  WS02003067           JUNCTION      0.00   961.14     0  01:46           0        7.48       0.058
  WS02003069           JUNCTION      0.32  1172.24     0  01:47     0.00922        13.3       0.116
  WS02003072           JUNCTION      0.00  1168.43     0  01:54           0        13.3       0.158
  WS02003073           JUNCTION      1.82  1169.45     0  01:54      0.0524        13.3       0.163
  WS02004138           JUNCTION      0.00   380.00     0  00:00           0        5.25       0.054
  WS02004139           JUNCTION      0.32   191.14     0  00:29     0.00924        5.26       0.508
  WS02004401           JUNCTION      0.00   970.89     0  01:45           0        7.58       0.137
  WS02004402           JUNCTION      0.00   971.58     0  01:45           0        7.57       0.139
  WS02004403           JUNCTION      0.00   971.96     0  01:45           0        7.56       0.134
  WS02004404           JUNCTION      0.16   971.95     0  01:45     0.00467        7.56       0.115
  WS02004405           JUNCTION      0.04   973.22     0  01:45      0.0011        7.55       0.162
  WS02004406           JUNCTION      0.00   972.93     0  01:45           0        7.54       0.279
  WS02004407           JUNCTION      0.00   973.66     0  01:45           0        7.52       0.020
  WS02004409           JUNCTION      0.00   971.05     0  01:45           0        7.52       0.044
  WS02004410           JUNCTION      0.00   967.01     0  01:45           0        7.51       0.065
  WS02004411           JUNCTION      0.00   963.03     0  01:45           0        7.51       0.081
  WS02004412           JUNCTION      0.00   958.38     0  01:46           0         7.5       0.107
  WS02004413           JUNCTION      0.00   960.62     0  01:46           0        7.49       0.188
  WS02006109           JUNCTION      1.23   939.70     0  01:45      0.0354        7.45       0.108
  WS02006110           JUNCTION      0.00   939.78     0  01:45           0        7.45       0.101
  WS02006111           JUNCTION      0.00   940.25     0  01:45           0        7.44       0.014
  WS02006112           JUNCTION     29.34   969.94     0  01:45       0.174        7.61       0.253
  WS02006113           JUNCTION      0.00   939.97     0  01:45           0        7.44       0.030
  WS02006115           JUNCTION      0.00   970.39     0  01:45           0        7.59       0.085
  WS02006116           JUNCTION      0.00   970.42     0  01:45           0        7.58       0.013
  WS02006228           JUNCTION      0.00   938.29     0  01:45           0        7.42       0.040
  WS02006229           JUNCTION      0.00   993.57     0  01:44           0        7.44       0.104
  WS02006230           JUNCTION     10.28   401.25     0  03:16       0.296        2.74       0.335
  WS02006231           JUNCTION      0.00   390.87     0  03:16           0        2.43      -0.153
  WS02006232           JUNCTION      0.00   390.84     0  03:16           0        2.43       0.203
  WS02006234           JUNCTION      0.00   457.77     0  01:20           0        2.42      -0.274
  WS02006235           JUNCTION      0.00   510.33     0  01:20           0        2.48       0.307
  WS02006238           JUNCTION      0.00   452.66     0  01:18           0        2.14      -0.222
  WS02006239           JUNCTION      0.00   474.25     0  01:18           0        2.11      -0.308
  WS02006240           JUNCTION      0.00   513.56     0  01:18           0         2.1      -0.045
  WS02006242           JUNCTION      0.00   617.78     0  01:18           0         2.1       0.115
  WS02006243           JUNCTION      0.00   641.28     0  01:17           0        2.09      -0.205
  WS02006245           JUNCTION      0.00   636.84     0  01:17           0        2.11       0.872
  WS02006247           JUNCTION      0.00   635.28     0  01:17           0         2.1      -0.009
  WS02006248           JUNCTION      0.00   652.48     0  01:16           0        2.14      -0.228
  WS02006249           JUNCTION      0.00   782.69     0  01:40           0        5.15       0.300
  WS02006251           JUNCTION      0.08   837.83     0  01:16     0.00222        5.25       0.017
  WS02006252           JUNCTION      0.00   600.00     0  01:10           0        4.16      -0.784
  WS02006253           JUNCTION      3.92   398.97     0  01:15      0.0197        1.05       0.341
  WS02006256           JUNCTION      0.00   450.00     0  00:20           0       0.853      -0.291
  WS02006280           JUNCTION      0.00   743.71     0  01:47           0        4.71       0.006
  WS02006284           JUNCTION      0.10   743.67     0  01:46     0.00275        4.72       0.024
  WS02006287           JUNCTION      0.00   743.49     0  01:46           0        4.71       0.019
  WSF200               JUNCTION      0.00   965.66     0  01:46           0        7.47       0.010
  YS02001580           JUNCTION      0.00    19.70     0  01:26           0       0.005       0.758
  YS02001583           JUNCTION      0.00    46.57     0  01:28           0      0.0159      -2.220
  YS02001586           JUNCTION    205.85   211.56     0  01:50        1.34        1.35       0.069
  YS02001590           JUNCTION      0.00   211.48     0  01:50           0        1.34      -0.034
  YS02001593           JUNCTION      0.00   211.34     0  01:50           0        1.34       0.007
  YS02001596           JUNCTION      0.00   211.09     0  01:50           0        1.34      -0.015
  YS02001600           JUNCTION      0.00   210.93     0  01:50           0        1.34      -0.001
  YS02001601           JUNCTION    342.07   538.07     0  01:32        1.89        3.23       0.019
  YS02001602           JUNCTION      0.00   515.25     0  01:36           0        3.22       0.011
  YS02001605           JUNCTION      0.00   515.23     0  01:36           0        3.22       0.014
  YS02001607           JUNCTION      0.00   515.19     0  01:37           0        3.22       0.057
  YS02001610           JUNCTION      0.00   516.36     0  01:36           0        3.21       0.080
  YS02001613           JUNCTION      0.00   515.96     0  01:36           0        3.21       0.054
  YS02001616           JUNCTION      0.00   515.98     0  01:37           0        3.22       0.017
  YS02001619           JUNCTION    345.44   858.18     0  01:45        2.14        5.36      -0.002
  YS02001622           JUNCTION      0.00   857.60     0  01:44           0        5.35      -0.002
  YS02001625           JUNCTION      0.00   857.69     0  01:45           0        5.35       0.186
  YS02001629           JUNCTION      0.00   857.54     0  01:45           0        5.34       0.010
  YS02001633           JUNCTION    249.04  1094.99     0  01:44        1.37        6.72       0.048
  YS02001641           JUNCTION      0.00  1096.30     0  01:44           0        6.72       0.043
  YS02001644           JUNCTION    219.17  1308.59     0  01:31        1.19         7.9       0.041
  YS02001647           JUNCTION      0.00  1308.09     0  01:31           0        7.88       0.006
  YS02001649           JUNCTION      0.00  1495.43     0  01:31           0        8.95       0.007
  YS02001652           JUNCTION      0.00   197.11     0  01:28           0        1.07      -0.142
  YS02001655           JUNCTION      0.15   197.16     0  01:28     0.00443        1.07       0.107
  YS02001658           JUNCTION      0.00   197.04     0  01:28           0        1.07      -0.001
  YS02001661           JUNCTION      0.00   197.08     0  01:28           0        1.07       0.037
  YS02001664           JUNCTION    197.10   197.10     0  01:28        1.07        1.07      -0.010
  YS02001745           JUNCTION    130.99   130.99     0  01:27       0.657       0.657      -0.004
  YS02001748           JUNCTION      0.04   131.02     0  01:27      0.0013       0.658       0.000
  YS02001751           JUNCTION      0.01   131.03     0  01:27    0.000317       0.659       0.092
  YS02001754           JUNCTION      0.26   131.29     0  01:27     0.00749       0.665      -0.132
  YS02001757           JUNCTION      0.00  2032.55     0  01:32           0        11.9       0.025
  YS02001759           JUNCTION    178.59   418.69     0  01:27       0.904        2.31      -0.008
  YS02001762           JUNCTION      0.00   252.82     0  01:35           0         1.4       0.014
  YS02001765           JUNCTION      0.00   252.65     0  01:31           0         1.4       0.015
  YS02001767           JUNCTION      0.54   258.78     0  01:27      0.0154         1.4       0.023
  YS02001770           JUNCTION    268.50   268.50     0  01:27        1.39        1.41      -0.015
  YS02001774           JUNCTION      0.00    35.63     0  01:08           0      0.0272       4.858
  YS02001779           JUNCTION      0.01    15.23     0  01:09    0.000144     0.00602       0.344
  YS02001783           JUNCTION      0.00   782.63     0  01:33           0        4.37       0.007
  YS02001784           JUNCTION      1.06   782.45     0  01:34      0.0305         4.4       0.012
  YS02001786           JUNCTION      0.06   780.17     0  01:34     0.00162        4.41       0.015
  YS02001788           JUNCTION      0.07   779.00     0  01:34     0.00204        4.41       0.008
  YS02001790           JUNCTION      0.15   778.83     0  01:34     0.00446        4.41       0.021
  YS02001791           JUNCTION      0.00   806.47     0  01:35           0        4.41      -0.006
  YS02001793           JUNCTION      0.00   778.77     0  01:35           0        4.41       0.005
  YS02001882           JUNCTION      0.00    33.85     0  01:17           0      0.0355       2.025
  YS02001884           JUNCTION      0.00    62.93     0  01:15           0      0.0724       3.636
  YS02001887           JUNCTION    191.97   204.33     0  01:24       0.955       0.989       0.442
  YS02001890           JUNCTION      0.00   198.86     0  01:24           0       0.947       0.549
  YS02001895           JUNCTION      0.00   197.63     0  01:25           0       0.942       0.239
  YS02001898           JUNCTION      0.00   204.15     0  01:24           0        0.94      -0.006
  YS02001901           JUNCTION      0.00   209.28     0  01:24           0       0.944       0.365
  YS02001904           JUNCTION      0.00   190.63     0  01:23           0       0.952       0.306
  YS02001907           JUNCTION      0.00   548.67     0  01:50           0        3.05       0.581
  YS02001910           JUNCTION      0.00   406.32     0  01:33           0         2.1       0.333
  YS02001915           JUNCTION    243.82   364.97     0  01:33        1.32         2.1       0.076
  YS02001918           JUNCTION      0.00   127.34     0  01:36           0       0.779       0.040
  YS02001920           JUNCTION      2.87   125.20     0  01:33      0.0827        0.78       0.138
  YS02001923           JUNCTION      0.04   120.86     0  01:31     0.00109       0.697       0.002
  YS02001926           JUNCTION      0.05   120.87     0  01:31      0.0015       0.697       0.044
  YS02001929           JUNCTION    120.82   120.82     0  01:31       0.695       0.695      -0.007
  YS02006553           JUNCTION      0.00   549.21     0  01:51           0        3.05       0.376
  YS02006556           JUNCTION      0.00   549.70     0  01:51           0        3.06       0.266
  YS02006558           JUNCTION    267.30   781.10     0  01:33        1.39        4.42       0.092
  YS02006561           JUNCTION      0.00   782.33     0  01:33           0        4.37      -0.020
  YS02163301           JUNCTION      0.00   859.13     0  01:46           0        5.35       0.028
  YS02163601           JUNCTION      0.11  1095.17     0  01:44     0.00317        6.71       0.074
  YS02164001           JUNCTION      0.00  1095.51     0  01:44           0        6.71       0.036
  YSB1154              JUNCTION     48.29    48.29     0  01:43       0.274       0.274       0.528
  YSB1171              JUNCTION      0.00    86.39     0  01:30           0       0.486       1.324
  YSB1174              JUNCTION     38.94    38.94     0  01:27       0.204       0.205       0.630
  YSB6556              JUNCTION      0.00    48.22     0  01:31           0       0.275       0.463
  CC-1                 OUTFALL       0.00  1024.50     0  00:05           0       0.352       0.000
  CC-2                 OUTFALL       0.00  1024.50     0  00:05           0        8.27       0.000
  JK-1                 OUTFALL       0.00  1500.00     0  03:25           0       0.386       0.000
  JK-2                 OUTFALL       0.00  1500.00     0  01:20           0        3.29       0.000
  WSC                  OUTFALL       0.00  1167.98     0  01:55           0        13.3       0.000
  CC-storage           STORAGE       0.00  2026.70     0  01:33           0        14.2      -0.147
  JK-storage           STORAGE       0.00   778.79     0  01:35           0        4.56      -0.346
  XR-storage           STORAGE     200.00   200.00     0  00:00        5.76        6.36       0.001
  
  
  **********************
  Node Surcharge Summary
  **********************
  
  Surcharging occurs when water rises above the top of the highest conduit.
  ---------------------------------------------------------------------
                                               Max. Height   Min. Depth
                                   Hours       Above Crown    Below Rim
  Node                 Type      Surcharged         Meters       Meters
  ---------------------------------------------------------------------
  HS02004817           JUNCTION        0.42          0.016        1.724
  WS02004401           JUNCTION        1.78          0.316        1.344
  WS02004402           JUNCTION        1.80          0.298        1.442
  WS02004403           JUNCTION        1.81          0.272        1.758
  WS02004404           JUNCTION        1.92          0.322        2.458
  WS02004405           JUNCTION        1.90          0.291        2.509
  WS02004406           JUNCTION        1.89          0.220        2.230
  WS02004413           JUNCTION        1.01          0.033        2.167
  WS02006109           JUNCTION        2.12          0.948        0.872
  WS02006110           JUNCTION        1.97          0.638        1.212
  WS02006111           JUNCTION        0.84          0.223        1.647
  WS02006112           JUNCTION        2.01          0.676        1.004
  WS02006113           JUNCTION        0.91          0.279        1.651
  WS02006115           JUNCTION        1.69          0.323        1.927
  WS02006116           JUNCTION        1.71          0.304        1.986
  WS02006228           JUNCTION        2.11          1.120        1.080
  WS02006230           JUNCTION        1.94          0.929        0.641
  WS02006231           JUNCTION        1.95          1.530        0.000
  WS02006232           JUNCTION        2.00          1.296        0.184
  WS02006234           JUNCTION        1.96          1.240        0.000
  WS02006235           JUNCTION        1.97          1.290        0.000
  WS02006238           JUNCTION        1.97          1.323        0.107
  WS02006239           JUNCTION        1.95          1.178        0.112
  WS02006240           JUNCTION        1.93          1.133        0.257
  WS02006242           JUNCTION        1.94          0.820        0.000
  WS02006243           JUNCTION        1.88          0.770        0.000
  WS02006245           JUNCTION        1.88          0.615        0.235
  WS02006247           JUNCTION        1.89          0.553        0.207
  WS02006248           JUNCTION        1.87          0.380        0.000
  WS02006249           JUNCTION        1.88          0.390        0.000
  WS02006251           JUNCTION        1.80          0.705        0.475
  WS02006252           JUNCTION        2.18          1.100        0.000
  WS02006253           JUNCTION        1.82          0.643        1.837
  WS02006256           JUNCTION        7.08          2.050        0.000
  YS02001586           JUNCTION        0.47          0.295        0.215
  YS02001590           JUNCTION        0.91          0.554        0.196
  YS02001593           JUNCTION        0.92          0.552        0.288
  YS02001596           JUNCTION        1.20          0.844        0.226
  YS02001600           JUNCTION        1.79          1.138        0.052
  YS02001601           JUNCTION        2.01          1.440        0.000
  YS02001602           JUNCTION        1.94          1.197        0.073
  YS02001605           JUNCTION        1.90          0.961        0.219
  YS02001607           JUNCTION        0.57          0.180        0.500
  YS02001610           JUNCTION        0.82          0.219        0.461
  YS02001613           JUNCTION        0.53          0.160        0.540
  YS02001616           JUNCTION        0.38          0.071        0.539
  YS02001619           JUNCTION        0.34          0.038        0.572
  YS02001622           JUNCTION        0.32          0.024        0.596
  YS02001625           JUNCTION        1.06          0.269        0.511
  YS02001633           JUNCTION        1.09          0.267        0.793
  YS02001641           JUNCTION        0.67          0.099        1.001
  YS02001644           JUNCTION        0.42          0.035        0.885
  YS02001907           JUNCTION        1.00          0.149        0.801
  YS02006553           JUNCTION        1.06          0.153        1.037
  YS02006556           JUNCTION        0.41          0.073        1.277
  YS02006558           JUNCTION        0.36          0.050        1.350
  YS02163301           JUNCTION        1.04          0.265        0.765
  YS02163601           JUNCTION        1.16          0.244        0.836
  YS02164001           JUNCTION        0.86          0.121        0.979
  
  
  *********************
  Node Flooding Summary
  *********************
  
  Flooding refers to all water that overflows a node, whether it ponds or not.
  --------------------------------------------------------------------------
                                                             Total   Maximum
                                 Maximum   Time of Max       Flood    Ponded
                        Hours       Rate    Occurrence      Volume     Depth
  Node                 Flooded       LPS   days hr:min    10^6 ltr    Meters
  --------------------------------------------------------------------------
  WS02006231              0.01    145.24      0  01:20       0.000     0.000
  WS02006234              0.01      5.50      0  01:50       0.000     0.000
  WS02006235              0.01     10.93      0  01:50       0.000     0.000
  WS02006242              0.01    190.36      0  01:21       0.001     0.000
  WS02006243              0.01     18.82      0  01:24       0.000     0.000
  WS02006248              0.34     81.43      0  01:51       0.045     0.000
  WS02006249              1.82    680.44      0  01:40       3.001     0.000
  WS02006252              0.01    245.63      0  00:00       0.000     0.000
  WS02006256              0.54    434.08      0  01:50       0.506     0.000
  YS02001601              0.29     24.49      0  01:32       0.010     0.000
  
  
  **********************
  Storage Volume Summary
  **********************
  
  --------------------------------------------------------------------------------------------------
                         Average     Avg  Evap Exfil       Maximum     Max    Time of Max    Maximum
                          Volume    Pcnt  Pcnt  Pcnt        Volume    Pcnt     Occurrence    Outflow
  Storage Unit           1000 m3    Full  Loss  Loss       1000 m3    Full    days hr:min        LPS
  --------------------------------------------------------------------------------------------------
  CC-storage               1.820      28     0     0         2.766      43       0  02:19    2349.00
  JK-storage               0.079      27     0     0         0.212      73       0  01:44    3450.00
  XR-storage               0.937      65     0     0         1.111      77       0  08:00     380.00
  
  
  ***********************
  Outfall Loading Summary
  ***********************
  
  -----------------------------------------------------------
                         Flow       Avg       Max       Total
                         Freq      Flow      Flow      Volume
  Outfall Node           Pcnt       LPS       LPS    10^6 ltr
  -----------------------------------------------------------
  CC-1                   3.09    940.52   1024.50       0.352
  CC-2                  52.28   1019.54   1024.50       8.271
  JK-1                   1.66   1055.84   1500.00       0.386
  JK-2                  13.87   1493.62   1500.00       3.287
  WSC                   99.95    617.38   1167.98      13.279
  -----------------------------------------------------------
  System                34.17   5126.91   1167.98      25.576
  
  
  ********************
  Link Flow Summary
  ********************
  
  -----------------------------------------------------------------------------
                                 Maximum  Time of Max   Maximum    Max/    Max/
                                  |Flow|   Occurrence   |Veloc|    Full    Full
  Link                 Type          LPS  days hr:min     m/sec    Flow   Depth
  -----------------------------------------------------------------------------
  1                    CONDUIT   1167.98     0  01:55      3.47    0.41    0.44
  HS02004478WS02006287 CONDUIT    743.49     0  01:46      2.18    0.21    0.38
  HS02004479HS02004480 CONDUIT     86.42     0  01:32      0.43    0.08    0.59
  HS02004480HS02004478 CONDUIT    547.46     0  01:46      1.58    2.31    0.50
  HS02004770HS02004777 CONDUIT    185.02     0  01:45      0.48    0.34    0.55
  HS02004777HS02004785 CONDUIT    184.91     0  01:46      0.58    0.23    0.46
  HS02004785HS02004788 CONDUIT    185.06     0  01:46      0.90    1.40    0.29
  HS02004788HS02004792 CONDUIT    244.48     0  01:46      1.28    0.16    0.27
  HS02004792HS02004799 CONDUIT    423.89     0  01:46      1.21    0.26    0.50
  HS02004799HS02004480 CONDUIT    463.77     0  01:46      1.08    0.59    0.61
  HS02004802HS02004478 CONDUIT    196.65     0  01:48      0.56    0.17    0.51
  HS02004807HS02004802 CONDUIT    196.31     0  01:47      0.50    0.37    0.57
  HS02004817HS02004807 CONDUIT    148.61     0  01:48      0.27    0.09    0.78
  HS02004817HS02004824 CONDUIT    147.68     0  01:48      0.35    0.07    0.61
  HS02004824HS02004830 CONDUIT     71.65     0  01:47      0.62    0.09    0.19
  HS02004830HS02004837 CONDUIT     71.61     0  01:45      0.68    0.07    0.15
  HS02004837HS02004842 CONDUIT     21.12     0  02:18      0.41    0.01    0.36
  HS02004842HS02004848 CONDUIT     20.85     0  02:15      0.09    0.01    0.34
  HS02004848HS02004852 CONDUIT     43.36     0  01:46      0.55    0.05    0.11
  HS02004852HS02004856 CONDUIT     43.39     0  01:46      0.36    0.05    0.17
  HS02004856HS02004862 CONDUIT     63.51     0  01:46      0.62    0.06    0.15
  HS02004862HS02004870 CONDUIT     90.89     0  01:46      0.84    0.10    0.15
  HS02004870HS02004876 CONDUIT    117.72     0  01:45      0.87    0.08    0.19
  HS02004876HS02004881 CONDUIT    145.05     0  01:45      1.28    1.54    0.17
  HS02004881HS02006253 CONDUIT    219.81     0  01:30      2.59    0.04    0.56
  HS02004901HS02004770 CONDUIT     35.49     0  01:45      0.09    0.13    0.54
  WS02001211WS02001212 CONDUIT    207.03     0  01:44      0.54    0.16    0.60
  WS02001212WS02001213 CONDUIT    208.68     0  03:24      1.04    0.32    0.47
  WS02001213WS02003059 CONDUIT    213.88     0  03:26      0.47    0.35    0.80
  WS02003059WS02003060 CONDUIT    221.12     0  03:25      0.66    0.14    0.71
  WS02003060WS02003069 CONDUIT   1171.92     0  01:47      1.97    0.46    0.52
  WS02003066WSF200     CONDUIT    965.66     0  01:46      3.18    0.16    0.32
  WS02003067WS02003066 CONDUIT    964.40     0  01:46      1.68    0.31    0.51
  WS02003069WS02003072 CONDUIT   1168.43     0  01:54      1.74    0.56    0.57
  WS02003072WS02003073 CONDUIT   1167.63     0  01:54      1.87    2.52    0.54
  WS02004138WS02004139 CONDUIT    190.82     0  00:29      2.16    0.04    0.37
  WS02004139WS02001211 CONDUIT    198.61     0  01:50      0.54    0.25    0.53
  WS02004401WS02004402 CONDUIT    971.58     0  01:45      1.24    1.17    1.00
  WS02004402WS02004403 CONDUIT    971.96     0  01:45      1.24    1.40    1.00
  WS02004403WS02004404 CONDUIT    971.79     0  01:45      1.24    0.70    1.00
  WS02004404WS02004405 CONDUIT    973.18     0  01:45      1.28    9.53    1.00
  WS02004405WS02004406 CONDUIT    972.93     0  01:45      1.24    1.92    1.00
  WS02004406WS02004407 CONDUIT    973.66     0  01:45      1.65    0.44    0.70
  WS02004407WS02004409 CONDUIT    971.05     0  01:45      1.84    0.34    0.69
  WS02004409WS02004410 CONDUIT    967.01     0  01:45      1.27    1.25    0.97
  WS02004410WS02004411 CONDUIT    963.03     0  01:45      1.25    1.32    0.96
  WS02004411WS02004412 CONDUIT    958.38     0  01:46      1.26    1.36    0.93
  WS02004412WS02004413 CONDUIT    960.62     0  01:46      1.24    0.64    0.96
  WS02004413WS02003067 CONDUIT    961.14     0  01:46      1.58    0.41    0.72
  WS02006109WS02006110 CONDUIT    939.78     0  01:45      1.87    1.81    1.00
  WS02006110WS02006113 CONDUIT    939.97     0  01:45      1.87    0.86    1.00
  WS02006111WS02006112 CONDUIT    940.62     0  01:45      1.98    0.45    1.00
  WS02006112WS02006115 CONDUIT    970.39     0  01:45      1.24    0.57    1.00
  WS02006113WS02006111 CONDUIT    940.25     0  01:45      2.79    1.13    1.00
  WS02006115WS02006116 CONDUIT    970.42     0  01:45      1.25    1.25    1.00
  WS02006116WS02004401 CONDUIT    970.89     0  01:45      1.24    1.34    1.00
  WS02006228WS02006109 CONDUIT    938.47     0  01:45      1.87    4.10    1.00
  WS02006229WS02006228 CONDUIT    938.29     0  01:45      1.87    3.11    1.00
  WS02006230WS02006229 CONDUIT    401.64     0  03:16      1.20    8.94    1.00
  WS02006231WS02006230 CONDUIT    390.97     0  03:16      1.25    5.93    1.00
  WS02006232WS02006231 CONDUIT    390.87     0  03:16      1.02    0.82    1.00
  WS02006234WS02006232 CONDUIT    390.84     0  03:16      1.41    0.79    1.00
  WS02006235WS02006234 CONDUIT    457.77     0  01:20      1.38    4.83    1.00
  WS02006238WS02006235 CONDUIT    428.88     0  01:19      1.45    0.96    1.00
  WS02006239WS02006238 CONDUIT    452.66     0  01:18      1.39    1.45    1.00
  WS02006240WS02006239 CONDUIT    474.25     0  01:18      1.48    1.49    1.00
  WS02006242WS02006240 CONDUIT    513.56     0  01:18      1.44    2.04    1.00
  WS02006243WS02006242 CONDUIT    617.78     0  01:18      1.67    1.32    1.00
  WS02006245WS02006243 CONDUIT    641.28     0  01:17      1.70    1.90    1.00
  WS02006247WS02006245 CONDUIT    636.84     0  01:17      1.65    5.05    1.00
  WS02006248WS02006247 CONDUIT    635.28     0  01:17      1.74    1.38    1.00
  WS02006249WS02006248 CONDUIT    652.48     0  01:16      1.78    3.57    1.00
  WS02006251WS02006249 CONDUIT    782.69     0  01:40      2.03    2.26    1.00
  WS02006252WS02006251 CONDUIT    611.58     0  01:15     25.27    2.24    1.00
  WS02006253WS02006251 CONDUIT    449.06     0  01:18      1.19    1.35    1.00
  WS02006256WS02006235 CONDUIT    288.93     0  00:00      4.23    3.06    1.00
  WS02006280WS02006229 CONDUIT    755.58     0  01:45      4.15    0.16    0.59
  WS02006284WS02006280 CONDUIT    743.71     0  01:47      2.68    0.31    0.38
  WS02006287WS02006284 CONDUIT    743.57     0  01:46      2.45    0.34    0.41
  WSF200WS02003060     CONDUIT    970.61     0  01:46      2.27    0.22    0.42
  YS02001580YS02001583 CONDUIT     19.70     0  01:26      0.39    0.08    0.93
  YS02001583YS02001586 CONDUIT     46.57     0  01:28      0.23    0.07    0.95
  YS02001586YS02001590 CONDUIT    211.48     0  01:50      1.25    0.37    1.00
  YS02001590YS02001593 CONDUIT    211.34     0  01:50      1.04    1.33    1.00
  YS02001593YS02001596 CONDUIT    211.09     0  01:50      1.69    0.33    1.00
  YS02001596YS02001600 CONDUIT    210.93     0  01:50      1.20    0.41    1.00
  YS02001600YS02001601 CONDUIT    210.99     0  01:50      0.75    0.36    1.00
  YS02001601YS02001602 CONDUIT    515.25     0  01:36      1.82    1.86    1.00
  YS02001602YS02001605 CONDUIT    515.23     0  01:36      1.82   10.90    1.00
  YS02001605YS02001607 CONDUIT    515.19     0  01:37      1.82    2.83    1.00
  YS02001607YS02001610 CONDUIT    516.36     0  01:36      0.67    0.49    1.00
  YS02001610YS02001613 CONDUIT    515.96     0  01:36      0.66    0.59    1.00
  YS02001613YS02001616 CONDUIT    515.98     0  01:37      0.67    0.44    1.00
  YS02001616YS02001619 CONDUIT    516.03     0  01:37      0.72    0.90    1.00
  YS02001619YS02001622 CONDUIT    857.60     0  01:44      1.47    1.26    1.00
  YS02001622YS02001625 CONDUIT    857.69     0  01:45      1.09    0.46    1.00
  YS02001625YS02001629 CONDUIT    857.54     0  01:45      1.12    0.41    0.94
  YS02001629YS02163301 CONDUIT    859.13     0  01:46      1.09    1.06    1.00
  YS02001633YS02163601 CONDUIT   1095.06     0  01:44      1.39    1.15    1.00
  YS02001641YS02001644 CONDUIT   1094.91     0  01:44      1.39    3.54    1.00
  YS02001644YS02001647 CONDUIT   1308.09     0  01:31      1.87    0.77    0.83
  YS02001647YS02001649 CONDUIT   1309.12     0  01:31      2.24    0.69    0.70
  YS02001649YS02001757 CONDUIT   1496.65     0  01:31      2.43    0.91    0.75
  YS02001652YS02001649 CONDUIT    193.57     0  01:32      1.13    0.10    0.64
  YS02001655YS02001652 CONDUIT    197.11     0  01:28      1.53    0.10    0.39
  YS02001658YS02001655 CONDUIT    197.01     0  01:28      1.73    0.08    0.23
  YS02001661YS02001658 CONDUIT    197.04     0  01:28      1.87    0.08    0.19
  YS02001664YS02001661 CONDUIT    197.08     0  01:28      1.61    0.06    0.21
  YS02001745YS02001748 CONDUIT    130.98     0  01:27      1.73    0.05    0.15
  YS02001748YS02001751 CONDUIT    131.02     0  01:27      1.45    0.07    0.17
  YS02001751YS02001754 CONDUIT    131.03     0  01:27      1.44    0.06    0.25
  YS02001754YS02001757 CONDUIT    131.62     0  01:29      0.82    0.05    0.57
  YS02001757CaochengTiaoxuchi CONDUIT   2026.70     0  01:33      3.36    0.88    0.82
  YS02001759YS02001757 CONDUIT    414.71     0  01:33      1.19    0.29    0.70
  YS02001762YS02001759 CONDUIT    253.50     0  01:35      0.70    0.29    0.63
  YS02001765YS02001762 CONDUIT    252.82     0  01:35      0.82    0.24    0.59
  YS02001767YS02001765 CONDUIT    252.65     0  01:31      0.88    0.32    0.55
  YS02001770YS02001767 CONDUIT    258.24     0  01:27      0.80    1.02    0.54
  YS02001774YS02001770 CONDUIT     35.63     0  01:08      0.55    0.02    0.57
  YS02001779YS02001774 CONDUIT     15.23     0  01:09      0.16    0.01    0.49
  YS02001783YS02001784 CONDUIT    781.39     0  01:34      1.66    1.08    0.89
  YS02001784YS02001785 CONDUIT    780.11     0  01:34      1.80    1.82    0.81
  YS02001786YS02001788 CONDUIT    778.93     0  01:34      2.24    1.50    0.65
  YS02001788YS02001790 CONDUIT    778.68     0  01:34      2.33    0.57    0.63
  YS02001790YS02001791 CONDUIT    806.47     0  01:35      2.84    0.88    0.55
  YS02001791YS02001793 CONDUIT    778.77     0  01:35      5.80    0.33    0.31
  YS02001793JiankangQianchi CONDUIT    778.79     0  01:35      1.63    0.06    0.58
  YS02001882YS02001884 CONDUIT     33.85     0  01:17      0.30    0.04    0.75
  YS02001884YS02001887 CONDUIT     62.93     0  01:15      0.24    0.08    0.85
  YS02001887YS02001890 CONDUIT    198.86     0  01:24      0.30    0.34    0.90
  YS02001890YS02001895 CONDUIT    197.63     0  01:25      0.32    0.09    0.82
  YS02001895YS02001898 CONDUIT    204.15     0  01:24      0.60    0.35    0.69
  YS02001898YS02001901 CONDUIT    209.28     0  01:24      0.49    0.13    0.77
  YS02001901YS02001904 CONDUIT    190.63     0  01:23      0.50    0.30    0.83
  YS02001904YS02001907 CONDUIT    202.18     0  01:52      0.28    0.07    0.91
  YS02001907YS02006553 CONDUIT    549.21     0  01:51      0.61    0.65    1.00
  YS02001910YS02001907 CONDUIT    384.87     0  01:32      0.49    0.22    0.98
  YS02001915YS02001910 CONDUIT    406.32     0  01:33      0.94    0.20    0.84
  YS02001918YS02001915 CONDUIT    139.52     0  01:50      0.44    0.08    0.55
  YS02001920YS02001918 CONDUIT    127.34     0  01:36      0.66    0.12    0.41
  YS02001923YS02001920 CONDUIT    122.33     0  01:33      0.71    0.05    0.31
  YS02001926YS02001923 CONDUIT    120.82     0  01:31      0.83    0.17    0.24
  YS02001929YS02001926 CONDUIT    120.82     0  01:31      0.90    0.06    0.23
  YS02006553YS02006556 CONDUIT    549.70     0  01:51      0.70    0.47    1.00
  YS02006556YS02006558 CONDUIT    548.06     0  01:51      0.70    0.43    1.00
  YS02006558YS02006561 CONDUIT    782.33     0  01:33      3.14    1.73    0.83
  YS02006561YS02001783 CONDUIT    782.63     0  01:33      2.13    0.41    0.69
  YS02163301YS02001633 CONDUIT    859.35     0  01:46      1.09    0.81    1.00
  YS02163601YS02164001 CONDUIT   1095.51     0  01:44      1.39    0.97    1.00
  YS02164001YS02001641 CONDUIT   1096.30     0  01:44      1.40    1.50    1.00
  YSB1154YSB6556       CONDUIT     48.22     0  01:31      0.16    0.09    0.75
  YSB1171HS02004479    CONDUIT     86.16     0  01:31      0.54    0.06    0.69
  YSB1174YSB1171       CONDUIT     38.80     0  01:28      0.11    0.06    0.86
  YSB6556YSB1171       CONDUIT     48.55     0  01:32      0.14    0.05    0.83
  CC-R1                PUMP      1024.50     0  00:05              1.50
  CC-R2                PUMP      1024.50     0  00:05              1.50
  CC-S1                PUMP       300.00     0  01:10              1.50
  CC-S2                PUMP       300.00     0  00:05              1.50
  JK-R1                PUMP      1500.00     0  03:25              1.50
  JK-R2                PUMP      1500.00     0  01:20              1.50
  JK-S                 PUMP       450.00     0  00:20              1.50
  XR-1                 PUMP        95.00     0  00:00              1.00
  XR-2                 PUMP        95.00     0  00:00              1.00
  XR-3                 PUMP        95.00     0  00:00              1.00
  XR-4                 PUMP        95.00     0  00:00              1.00
  
  
  ***************************
  Flow Classification Summary
  ***************************
  
  -------------------------------------------------------------------------------------
                      Adjusted    ---------- Fraction of Time in Flow Class ---------- 
                       /Actual         Up    Down  Sub   Sup   Up    Down  Norm  Inlet 
  Conduit               Length    Dry  Dry   Dry   Crit  Crit  Crit  Crit  Ltd   Ctrl  
  -------------------------------------------------------------------------------------
  1                       1.00   0.00  0.00  0.00  0.00  1.00  0.00  0.00  0.39  0.00
  HS02004478WS02006287    1.00   0.10  0.00  0.00  0.44  0.46  0.00  0.00  0.60  0.00
  HS02004479HS02004480    1.00   0.05  0.00  0.00  0.95  0.00  0.00  0.00  0.10  0.00
  HS02004480HS02004478    1.00   0.09  0.00  0.00  0.36  0.00  0.00  0.55  0.00  0.00
  HS02004770HS02004777    1.00   0.00  0.09  0.00  0.91  0.00  0.00  0.00  0.01  0.00
  HS02004777HS02004785    1.00   0.00  0.00  0.00  1.00  0.00  0.00  0.00  0.10  0.00
  HS02004785HS02004788    1.00   0.00  0.00  0.00  1.00  0.00  0.00  0.00  0.00  0.00
  HS02004788HS02004792    1.00   0.00  0.00  0.00  0.99  0.01  0.00  0.00  0.98  0.00
  HS02004792HS02004799    1.00   0.00  0.00  0.00  0.98  0.02  0.00  0.00  0.98  0.00
  HS02004799HS02004480    1.00   0.00  0.05  0.00  0.90  0.00  0.05  0.00  0.00  0.00
  HS02004802HS02004478    1.00   0.09  0.00  0.00  0.90  0.00  0.00  0.00  0.01  0.00
  HS02004807HS02004802    1.00   0.09  0.00  0.00  0.90  0.00  0.00  0.01  0.00  0.00
  HS02004817HS02004807    1.00   0.00  0.09  0.00  0.91  0.00  0.00  0.00  0.01  0.00
  HS02004817HS02004824    1.00   0.00  0.00  0.00  1.00  0.00  0.00  0.00  0.79  0.00
  HS02004824HS02004830    1.00   0.00  0.00  0.00  1.00  0.00  0.00  0.00  0.07  0.00
  HS02004830HS02004837    1.00   0.00  0.00  0.00  1.00  0.00  0.00  0.00  0.99  0.00
  HS02004837HS02004842    1.00   0.00  0.00  0.00  1.00  0.00  0.00  0.00  0.11  0.00
  HS02004842HS02004848    1.00   0.00  0.09  0.00  0.91  0.00  0.00  0.00  0.55  0.00
  HS02004848HS02004852    1.00   0.09  0.00  0.00  0.91  0.00  0.00  0.00  0.83  0.00
  HS02004852HS02004856    1.00   0.09  0.00  0.00  0.90  0.00  0.00  0.00  0.64  0.00
  HS02004856HS02004862    1.00   0.00  0.10  0.00  0.90  0.00  0.00  0.00  0.85  0.00
  HS02004862HS02004870    1.00   0.00  0.00  0.00  1.00  0.00  0.00  0.00  0.02  0.00
  HS02004870HS02004876    1.00   0.00  0.00  0.00  0.99  0.01  0.00  0.00  0.95  0.00
  HS02004876HS02004881    1.00   0.04  0.00  0.00  0.56  0.41  0.00  0.00  0.00  0.00
  HS02004881HS02006253    1.00   0.03  0.03  0.00  0.45  0.02  0.00  0.46  0.27  0.00
  HS02004901HS02004770    1.00   0.09  0.00  0.00  0.91  0.00  0.00  0.00  0.00  0.00
  WS02001211WS02001212    1.00   0.00  0.04  0.00  0.96  0.00  0.00  0.00  0.00  0.00
  WS02001212WS02001213    1.00   0.04  0.00  0.00  0.50  0.00  0.46  0.00  0.00  0.00
  WS02001213WS02003059    1.00   0.00  0.00  0.00  0.99  0.00  0.00  0.00  0.00  0.00
  WS02003059WS02003060    1.00   0.00  0.00  0.00  1.00  0.00  0.00  0.00  0.03  0.00
  WS02003060WS02003069    1.00   0.00  0.00  0.00  0.98  0.02  0.00  0.00  0.51  0.00
  WS02003066WSF200        1.00   0.07  0.00  0.00  0.00  0.93  0.00  0.00  0.66  0.00
  WS02003067WS02003066    1.00   0.07  0.00  0.00  0.93  0.00  0.00  0.00  0.00  0.00
  WS02003069WS02003072    1.00   0.00  0.00  0.00  1.00  0.00  0.00  0.00  0.67  0.00
  WS02003072WS02003073    1.00   0.00  0.00  0.00  0.00  0.00  0.00  1.00  0.00  0.00
  WS02004138WS02004139    1.00   0.00  0.01  0.00  0.96  0.01  0.00  0.03  0.98  0.00
  WS02004139WS02001211    1.00   0.00  0.00  0.00  0.99  0.00  0.00  0.00  0.00  0.00
  WS02004401WS02004402    1.00   0.04  0.00  0.00  0.96  0.00  0.00  0.00  0.00  0.00
  WS02004402WS02004403    1.00   0.04  0.00  0.00  0.96  0.00  0.00  0.00  0.00  0.00
  WS02004403WS02004404    1.00   0.00  0.04  0.00  0.96  0.00  0.00  0.00  0.00  0.00
  WS02004404WS02004405    1.00   0.00  0.00  0.00  1.00  0.00  0.00  0.00  0.01  0.00
  WS02004405WS02004406    1.00   0.00  0.00  0.00  1.00  0.00  0.00  0.00  0.00  0.00
  WS02004406WS02004407    1.00   0.00  0.05  0.00  0.95  0.00  0.00  0.00  0.00  0.00
  WS02004407WS02004409    1.00   0.05  0.00  0.00  0.93  0.01  0.00  0.00  0.95  0.00
  WS02004409WS02004410    1.00   0.05  0.00  0.00  0.95  0.00  0.00  0.00  0.00  0.00
  WS02004410WS02004411    1.00   0.06  0.00  0.00  0.94  0.00  0.00  0.00  0.00  0.00
  WS02004411WS02004412    1.00   0.06  0.00  0.00  0.94  0.00  0.00  0.00  0.00  0.00
  WS02004412WS02004413    1.00   0.06  0.00  0.00  0.94  0.00  0.00  0.00  0.01  0.00
  WS02004413WS02003067    1.00   0.06  0.01  0.00  0.00  0.00  0.93  0.00  0.00  0.00
  WS02006109WS02006110    1.00   0.00  0.01  0.00  0.97  0.00  0.03  0.00  0.00  0.00
  WS02006110WS02006113    1.00   0.01  0.03  0.00  0.97  0.00  0.00  0.00  0.00  0.00
  WS02006111WS02006112    1.00   0.04  0.00  0.00  0.96  0.00  0.00  0.00  0.74  0.00
  WS02006112WS02006115    1.00   0.04  0.00  0.00  0.96  0.00  0.00  0.00  0.00  0.00
  WS02006113WS02006111    1.00   0.03  0.00  0.00  0.37  0.60  0.00  0.00  0.07  0.00
  WS02006115WS02006116    1.00   0.04  0.00  0.00  0.95  0.00  0.00  0.01  0.00  0.00
  WS02006116WS02004401    1.00   0.04  0.00  0.00  0.96  0.00  0.00  0.00  0.00  0.00
  WS02006228WS02006109    1.00   0.00  0.00  0.00  1.00  0.00  0.00  0.00  0.00  0.00
  WS02006229WS02006228    1.00   0.00  0.00  0.00  0.99  0.00  0.00  0.01  0.00  0.00
  WS02006230WS02006229    1.00   0.00  0.00  0.00  0.97  0.00  0.00  0.03  0.03  0.00
  WS02006231WS02006230    1.00   0.00  0.00  0.00  0.50  0.00  0.49  0.00  0.00  0.00
  WS02006232WS02006231    1.00   0.00  0.00  0.00  0.99  0.00  0.00  0.00  0.00  0.00
  WS02006234WS02006232    1.00   0.00  0.00  0.00  1.00  0.00  0.00  0.00  0.06  0.00
  WS02006235WS02006234    1.00   0.00  0.00  0.00  0.87  0.00  0.13  0.00  0.00  0.00
  WS02006238WS02006235    1.00   0.00  0.00  0.00  1.00  0.00  0.00  0.00  0.00  0.00
  WS02006239WS02006238    1.00   0.00  0.00  0.00  1.00  0.00  0.00  0.00  0.16  0.00
  WS02006240WS02006239    1.00   0.00  0.00  0.00  0.75  0.00  0.00  0.25  0.02  0.00
  WS02006242WS02006240    1.00   0.00  0.00  0.00  0.99  0.00  0.01  0.00  0.00  0.00
  WS02006243WS02006242    1.00   0.00  0.00  0.00  0.99  0.00  0.00  0.01  0.65  0.00
  WS02006245WS02006243    1.00   0.00  0.00  0.00  0.90  0.00  0.00  0.10  0.00  0.00
  WS02006247WS02006245    1.00   0.00  0.00  0.00  0.98  0.00  0.00  0.02  0.00  0.00
  WS02006248WS02006247    1.00   0.00  0.00  0.00  0.99  0.00  0.00  0.01  0.55  0.00
  WS02006249WS02006248    1.00   0.00  0.00  0.00  0.63  0.00  0.37  0.00  0.00  0.00
  WS02006251WS02006249    1.00   0.00  0.00  0.00  0.99  0.01  0.00  0.00  0.58  0.00
  WS02006252WS02006251    1.00   0.21  0.23  0.00  0.40  0.00  0.16  0.00  0.00  0.00
  WS02006253WS02006251    1.00   0.00  0.00  0.00  0.98  0.00  0.02  0.00  0.01  0.00
  WS02006256WS02006235    1.00   0.00  0.00  0.00  0.99  0.01  0.00  0.00  0.00  0.00
  WS02006280WS02006229    1.00   0.10  0.00  0.00  0.08  0.28  0.00  0.54  0.01  0.00
  WS02006284WS02006280    1.00   0.10  0.00  0.00  0.00  0.00  0.00  0.90  0.00  0.00
  WS02006287WS02006284    1.00   0.08  0.02  0.00  0.30  0.60  0.00  0.00  0.62  0.00
  WSF200WS02003060        1.00   0.00  0.07  0.00  0.47  0.46  0.00  0.00  0.63  0.00
  YS02001580YS02001583    1.00   0.15  0.51  0.00  0.34  0.00  0.00  0.00  0.71  0.00
  YS02001583YS02001586    1.00   0.25  0.29  0.00  0.46  0.00  0.01  0.00  0.71  0.00
  YS02001586YS02001590    1.00   0.09  0.00  0.00  0.66  0.02  0.00  0.22  0.36  0.00
  YS02001590YS02001593    1.00   0.09  0.00  0.00  0.29  0.00  0.62  0.00  0.00  0.00
  YS02001593YS02001596    1.00   0.09  0.00  0.00  0.39  0.01  0.00  0.51  0.07  0.00
  YS02001596YS02001600    1.00   0.09  0.00  0.00  0.44  0.02  0.00  0.44  0.03  0.00
  YS02001600YS02001601    1.00   0.09  0.00  0.00  0.90  0.00  0.00  0.00  0.56  0.00
  YS02001601YS02001602    1.00   0.09  0.00  0.00  0.91  0.00  0.00  0.00  0.00  0.00
  YS02001602YS02001605    1.00   0.09  0.00  0.00  0.91  0.00  0.00  0.00  0.00  0.00
  YS02001605YS02001607    1.00   0.09  0.00  0.00  0.91  0.00  0.00  0.00  0.00  0.00
  YS02001607YS02001610    1.00   0.09  0.00  0.00  0.90  0.00  0.00  0.00  0.00  0.00
  YS02001610YS02001613    1.00   0.09  0.00  0.00  0.91  0.00  0.00  0.00  0.00  0.00
  YS02001613YS02001616    1.00   0.09  0.00  0.00  0.91  0.00  0.00  0.00  0.00  0.00
  YS02001616YS02001619    1.00   0.09  0.00  0.00  0.91  0.00  0.00  0.00  0.00  0.00
  YS02001619YS02001622    1.00   0.09  0.00  0.00  0.90  0.00  0.00  0.00  0.27  0.00
  YS02001622YS02001625    1.00   0.09  0.00  0.00  0.90  0.00  0.00  0.00  0.01  0.00
  YS02001625YS02001629    1.00   0.09  0.01  0.00  0.41  0.00  0.49  0.00  0.00  0.00
  YS02001629YS02163301    1.00   0.10  0.00  0.00  0.90  0.00  0.00  0.00  0.00  0.00
  YS02001633YS02163601    1.00   0.00  0.01  0.00  0.99  0.00  0.00  0.00  0.13  0.00
  YS02001641YS02001644    1.00   0.00  0.00  0.00  1.00  0.00  0.00  0.00  0.00  0.00
  YS02001644YS02001647    1.00   0.00  0.10  0.00  0.90  0.00  0.00  0.00  0.00  0.00
  YS02001647YS02001649    1.00   0.00  0.10  0.00  0.51  0.39  0.00  0.00  0.55  0.00
  YS02001649YS02001757    1.00   0.00  0.00  0.00  0.47  0.52  0.00  0.00  0.53  0.00
  YS02001652YS02001649    1.00   0.00  0.00  0.00  0.99  0.01  0.00  0.00  0.70  0.00
  YS02001655YS02001652    1.00   0.00  0.00  0.00  0.43  0.01  0.00  0.55  0.20  0.00
  YS02001658YS02001655    1.00   0.00  0.09  0.00  0.33  0.57  0.00  0.00  0.77  0.00
  YS02001661YS02001658    1.00   0.09  0.00  0.00  0.23  0.68  0.00  0.00  0.82  0.00
  YS02001664YS02001661    1.00   0.09  0.00  0.00  0.50  0.40  0.00  0.00  0.87  0.00
  YS02001745YS02001748    1.00   0.00  0.00  0.00  0.00  0.00  0.00  1.00  0.00  0.00
  YS02001748YS02001751    1.00   0.00  0.00  0.00  0.47  0.53  0.00  0.00  0.87  0.00
  YS02001751YS02001754    1.00   0.00  0.00  0.00  0.26  0.10  0.00  0.63  0.20  0.00
  YS02001754YS02001757    1.00   0.00  0.00  0.00  1.00  0.00  0.00  0.00  0.77  0.00
  YS02001757CaochengTiaoxuchi    1.00   0.00  0.00  0.00  0.90  0.10  0.00  0.00  0.83  0.00
  YS02001759YS02001757    1.00   0.00  0.00  0.00  0.99  0.00  0.00  0.00  0.60  0.00
  YS02001762YS02001759    1.00   0.00  0.00  0.00  1.00  0.00  0.00  0.00  0.01  0.00
  YS02001765YS02001762    1.00   0.00  0.00  0.00  1.00  0.00  0.00  0.00  0.69  0.00
  YS02001767YS02001765    1.00   0.00  0.00  0.00  1.00  0.00  0.00  0.00  0.00  0.00
  YS02001770YS02001767    1.00   0.00  0.00  0.00  1.00  0.00  0.00  0.00  0.00  0.00
  YS02001774YS02001770    1.00   0.00  0.09  0.00  0.82  0.00  0.09  0.00  0.01  0.00
  YS02001779YS02001774    1.00   0.00  0.00  0.00  1.00  0.00  0.00  0.00  0.73  0.00
  YS02001783YS02001784    1.00   0.00  0.10  0.00  0.90  0.00  0.00  0.00  0.54  0.00
  YS02001784YS02001785    1.00   0.00  0.00  0.00  1.00  0.00  0.00  0.00  0.13  0.00
  YS02001786YS02001788    1.00   0.00  0.00  0.00  0.45  0.55  0.00  0.00  0.00  0.00
  YS02001788YS02001790    1.00   0.00  0.00  0.00  0.10  0.90  0.00  0.00  0.75  0.00
  YS02001790YS02001791    1.00   0.00  0.00  0.00  0.03  0.97  0.00  0.00  0.25  0.00
  YS02001791YS02001793    1.00   0.00  0.00  0.00  0.00  1.00  0.00  0.00  0.00  0.00
  YS02001793JiankangQianchi    1.00   0.00  0.00  0.00  1.00  0.00  0.00  0.00  1.00  0.00
  YS02001882YS02001884    1.00   0.10  0.00  0.00  0.90  0.00  0.00  0.00  0.00  0.00
  YS02001884YS02001887    1.00   0.06  0.02  0.00  0.91  0.00  0.00  0.00  0.00  0.00
  YS02001887YS02001890    1.00   0.00  0.00  0.00  0.95  0.00  0.05  0.00  0.00  0.00
  YS02001890YS02001895    1.00   0.00  0.09  0.00  0.90  0.00  0.00  0.00  0.00  0.00
  YS02001895YS02001898    1.00   0.10  0.00  0.00  0.90  0.00  0.00  0.00  0.00  0.00
  YS02001898YS02001901    1.00   0.10  0.00  0.00  0.90  0.00  0.00  0.00  0.00  0.00
  YS02001901YS02001904    1.00   0.10  0.00  0.00  0.90  0.00  0.00  0.00  0.00  0.00
  YS02001904YS02001907    1.00   0.00  0.10  0.00  0.90  0.00  0.00  0.00  0.00  0.00
  YS02001907YS02006553    1.00   0.00  0.04  0.00  0.96  0.00  0.00  0.00  0.00  0.00
  YS02001910YS02001907    1.00   0.00  0.00  0.00  0.95  0.00  0.00  0.04  0.11  0.00
  YS02001915YS02001910    1.00   0.00  0.00  0.00  0.97  0.03  0.00  0.00  0.11  0.00
  YS02001918YS02001915    1.00   0.00  0.00  0.00  0.96  0.04  0.00  0.00  0.66  0.00
  YS02001920YS02001918    1.00   0.00  0.00  0.00  1.00  0.00  0.00  0.00  0.00  0.00
  YS02001923YS02001920    1.00   0.00  0.00  0.00  1.00  0.00  0.00  0.00  0.99  0.00
  YS02001926YS02001923    1.00   0.00  0.07  0.00  0.00  0.00  0.93  0.00  0.00  0.00
  YS02001929YS02001926    1.00   0.00  0.09  0.00  0.91  0.00  0.00  0.00  0.87  0.00
  YS02006553YS02006556    1.00   0.02  0.00  0.00  0.98  0.00  0.00  0.00  0.03  0.00
  YS02006556YS02006558    1.00   0.00  0.00  0.00  1.00  0.00  0.00  0.00  0.00  0.00
  YS02006558YS02006561    1.00   0.10  0.00  0.00  0.00  0.90  0.00  0.00  0.16  0.00
  YS02006561YS02001783    1.00   0.10  0.00  0.00  0.10  0.80  0.00  0.00  0.62  0.00
  YS02163301YS02001633    1.00   0.00  0.10  0.00  0.90  0.00  0.00  0.00  0.00  0.00
  YS02163601YS02164001    1.00   0.00  0.07  0.00  0.93  0.00  0.00  0.00  0.00  0.00
  YS02164001YS02001641    1.00   0.01  0.07  0.00  0.93  0.00  0.00  0.00  0.05  0.00
  YSB1154YSB6556          1.00   0.09  0.00  0.00  0.91  0.00  0.00  0.00  0.01  0.00
  YSB1171HS02004479       1.00   0.05  0.00  0.00  0.94  0.00  0.00  0.01  0.09  0.00
  YSB1174YSB1171          1.00   0.06  0.02  0.00  0.92  0.00  0.00  0.00  0.00  0.00
  YSB6556YSB1171          1.00   0.05  0.04  0.00  0.91  0.00  0.00  0.00  0.00  0.00
  
  
  *************************
  Conduit Surcharge Summary
  *************************
  
  ----------------------------------------------------------------------------
                                                           Hours        Hours 
                         --------- Hours Full --------   Above Full   Capacity
  Conduit                Both Ends  Upstream  Dnstream   Normal Flow   Limited
  ----------------------------------------------------------------------------
  HS02004480HS02004478        0.01      0.01      0.01      1.86         0.01
  HS02004785HS02004788        0.01      0.01      0.01      1.45         0.01
  HS02004817HS02004807        0.01      0.01      0.42      0.01         0.01
  HS02004817HS02004824        0.01      0.01      0.42      0.01         0.01
  HS02004876HS02004881        0.01      0.01      0.01      1.65         0.01
  HS02004881HS02006253        0.01      0.01      1.82      0.01         0.01
  WS02003072WS02003073        0.01      0.01      0.01      2.34         0.01
  WS02004401WS02004402        1.78      1.78      1.80      1.60         1.59
  WS02004402WS02004403        1.80      1.80      1.81      1.77         1.76
  WS02004403WS02004404        1.81      1.81      1.92      0.01         0.01
  WS02004404WS02004405        1.90      1.92      1.90      2.91         1.90
  WS02004405WS02004406        1.89      1.90      1.89      1.99         1.89
  WS02004406WS02004407        0.01      0.01      1.89      0.01         0.01
  WS02004409WS02004410        0.01      0.01      0.01      1.68         0.01
  WS02004410WS02004411        0.01      0.01      0.01      1.73         0.01
  WS02004411WS02004412        0.01      0.01      0.01      1.76         0.01
  WS02004412WS02004413        0.01      0.01      1.01      0.01         0.01
  WS02004413WS02003067        0.01      0.01      1.01      0.01         0.01
  WS02006109WS02006110        1.97      1.97      2.13      1.97         0.01
  WS02006110WS02006113        0.91      0.91      2.12      0.01         0.01
  WS02006111WS02006112        0.84      0.84      2.25      0.01         0.01
  WS02006112WS02006115        1.69      1.69      2.01      0.01         0.01
  WS02006113WS02006111        0.88      0.91      0.88      1.24         0.88
  WS02006115WS02006116        1.70      1.71      1.71      1.67         1.66
  WS02006116WS02004401        1.77      1.77      1.78      1.74         1.73
  WS02006228WS02006109        2.12      2.13      2.12      2.39         2.12
  WS02006229WS02006228        2.11      2.12      2.11      2.23         2.11
  WS02006230WS02006229        2.14      2.17      2.14      3.28         2.11
  WS02006231WS02006230        1.94      1.94      1.95      2.79         0.04
  WS02006232WS02006231        1.95      1.95      2.00      0.01         0.01
  WS02006234WS02006232        1.97      1.97      2.00      0.01         0.01
  WS02006235WS02006234        1.96      1.96      1.97      2.55         0.03
  WS02006238WS02006235        1.97      1.97      1.98      0.01         0.01
  WS02006239WS02006238        1.97      1.97      1.97      0.30         0.23
  WS02006240WS02006239        1.94      1.94      1.95      0.30         0.22
  WS02006242WS02006240        1.93      1.93      1.96      1.03         0.01
  WS02006243WS02006242        1.89      1.89      1.94      0.01         0.01
  WS02006245WS02006243        1.87      1.88      1.88      0.27         0.19
  WS02006247WS02006245        1.87      1.89      1.88      1.86         1.53
  WS02006248WS02006247        1.87      1.88      1.89      0.04         0.01
  WS02006249WS02006248        1.86      1.87      1.88      1.59         0.01
  WS02006251WS02006249        1.88      1.90      1.88      1.90         1.79
  WS02006252WS02006251        1.99      2.01      2.15      2.12         0.01
  WS02006253WS02006251        1.89      1.89      1.91      0.01         0.02
  WS02006256WS02006235        2.58      2.63      7.07      0.54         0.01
  YS02001583YS02001586        0.01      0.01      0.47      0.01         0.01
  YS02001586YS02001590        0.49      0.49      0.91      0.01         0.01
  YS02001590YS02001593        0.92      0.92      0.96      1.04         0.01
  YS02001593YS02001596        0.93      0.93      1.20      0.01         0.01
  YS02001596YS02001600        1.48      1.48      1.79      0.01         0.01
  YS02001600YS02001601        1.83      1.83      2.01      0.01         0.01
  YS02001601YS02001602        1.94      1.94      2.03      1.83         0.01
  YS02001602YS02001605        1.90      1.90      1.94      2.57         0.01
  YS02001605YS02001607        1.87      1.90      1.87      1.98         1.87
  YS02001607YS02001610        0.57      0.57      0.82      0.01         0.01
  YS02001610YS02001613        0.53      0.53      0.82      0.01         0.01
  YS02001613YS02001616        0.38      0.38      0.53      0.01         0.01
  YS02001616YS02001619        0.34      0.34      0.38      0.01         0.01
  YS02001619YS02001622        0.32      0.34      0.32      1.02         0.32
  YS02001622YS02001625        0.32      0.32      1.06      0.01         0.01
  YS02001625YS02001629        0.01      0.01      1.06      0.01         0.01
  YS02001629YS02163301        1.03      1.03      1.04      0.42         0.41
  YS02001633YS02163601        1.09      1.09      1.16      0.68         0.67
  YS02001641YS02001644        0.42      0.67      0.42      2.04         0.42
  YS02001644YS02001647        0.01      0.01      0.42      0.01         0.01
  YS02001770YS02001767        0.01      0.01      0.01      0.09         0.01
  YS02001783YS02001784        0.01      0.01      0.01      0.50         0.01
  YS02001784YS02001785        0.01      0.01      0.01      1.73         0.01
  YS02001786YS02001788        0.01      0.01      0.01      1.10         0.01
  YS02001793JiankangQianchi        0.01      0.01      7.33      0.01         0.01
  YS02001904YS02001907        0.01      0.01      1.07      0.01         0.01
  YS02001907YS02006553        1.74      1.74      1.79      0.01         0.01
  YS02001910YS02001907        0.01      0.01      1.00      0.01         0.01
  YS02006553YS02006556        0.41      0.41      1.06      0.01         0.01
  YS02006556YS02006558        0.62      0.62      1.10      0.01         0.01
  YS02006558YS02006561        0.01      0.36      0.01      1.47         0.01
  YS02163301YS02001633        1.04      1.04      1.14      0.01         0.01
  YS02163601YS02164001        0.86      0.86      1.16      0.01         0.01
  YS02164001YS02001641        0.67      0.86      0.67      1.39         0.67
  YSB6556YSB1171              0.01      0.01      0.96      0.01         0.01
  
  
  ***************
  Pumping Summary
  ***************
  
  ---------------------------------------------------------------------------------------------------------
                                                  Min       Avg       Max     Total     Power    % Time Off
                        Percent   Number of      Flow      Flow      Flow    Volume     Usage    Pump Curve
  Pump                 Utilized   Start-Ups       LPS       LPS       LPS  10^6 ltr     Kw-hr    Low   High
  ---------------------------------------------------------------------------------------------------------
  CC-R1                    1.54           2      0.00    940.52   1024.50     0.353      5.90    0.0  100.0
  CC-R2                   28.42          37      0.00   1019.54   1024.50     8.282    142.18    0.0  100.0
  CC-S1                   24.49          37      0.00    291.51    300.00     2.035     16.01    0.0    0.0
  CC-S2                   24.99          26      0.00    298.20    300.00     2.129     16.68    0.0    0.0
  JK-R1                    1.32           8      0.00   1055.84   1500.00     0.392      3.66    0.0    0.0
  JK-R2                    7.67          45      0.00   1493.62   1500.00     3.290     25.57    0.0    0.0
  JK-S                     6.71          16      0.00    443.87    450.00     0.849     14.28    0.0    0.0
  XR-1                    97.91           2      0.00     95.00     95.00     2.679      9.61    0.0    0.0
  XR-2                    93.94           2      0.00     95.00     95.00     2.570      8.77    0.0    0.0
  XR-3                     0.00           1      0.00     95.00     95.00     0.000      0.00    0.0    0.0
  XR-4                     0.00           1      0.00     95.00     95.00     0.000      0.00    0.0    0.0
  

  Analysis begun on:  Thu Jul 20 11:25:05 2023
  Analysis ended on:  Thu Jul 20 11:25:14 2023
  Total elapsed time: 00:00:09