
  OWA STORM WATER MANAGEMENT MODEL - VERSION v5.1.14 (OWA 2022-07-31)
  --------------------------------------------------------------

  WARNING 04: minimum elevation drop used for Conduit WS02004404WS02004405
  WARNING 03: negative offset ignored for Link YS02001904YS02001907
  
  *********************************************************
  NOTE: The summary statistics displayed in this report are
  based on results found at every computational time step,  
  not just on results from each reporting time step.
  *********************************************************
  
  ****************
  Analysis Options
  ****************
  Flow Units ............... LPS
  Process Models:
    Rainfall/Runoff ........ YES
    RDII ................... NO
    Snowmelt ............... NO
    Groundwater ............ NO
    Flow Routing ........... YES
    Ponding Allowed ........ NO
    Water Quality .......... NO
  Infiltration Method ...... HORTON
  Flow Routing Method ...... DYNWAVE
  Surcharge Method ......... EXTRAN
  Starting Date ............ 08/28/2015 08:00:00
  Ending Date .............. 08/28/2015 16:00:00
  Antecedent Dry Days ...... 8.0
  Report Time Step ......... 00:01:00
  Wet Time Step ............ 00:01:00
  Dry Time Step ............ 00:01:00
  Routing Time Step ........ 30.00 sec
  Variable Time Step ....... YES
  Maximum Trials ........... 8
  Number of Threads ........ 4
  Head Tolerance ........... 0.001500 m
  
  
  **************************        Volume         Depth
  Runoff Quantity Continuity     hectare-m            mm
  **************************     ---------       -------
  Total Precipitation ......         2.992        90.205
  Evaporation Loss .........         0.000         0.000
  Infiltration Loss ........         0.105         3.155
  Surface Runoff ...........         2.855        86.068
  Final Storage ............         0.033         0.997
  Continuity Error (%) .....        -0.017
  
  
  **************************        Volume        Volume
  Flow Routing Continuity        hectare-m      10^6 ltr
  **************************     ---------     ---------
  Dry Weather Inflow .......         0.000         0.000
  Wet Weather Inflow .......         2.854        28.543
  Groundwater Inflow .......         0.000         0.000
  RDII Inflow ..............         0.000         0.000
  External Inflow ..........         0.083         0.834
  External Outflow .........         2.417        24.173
  Flooding Loss ............         0.628         6.279
  Evaporation Loss .........         0.000         0.000
  Exfiltration Loss ........         0.000         0.000
  Initial Stored Volume ....         0.243         2.431
  Final Stored Volume ......         0.181         1.811
  Continuity Error (%) .....        -1.435
  
  
  *************************
  Highest Continuity Errors
  *************************
  Node YS02001884 (3.88%)
  Node YS02001583 (-3.64%)
  Node WS02006252 (-1.76%)
  Node WS02006256 (-1.51%)
  Node YS02001748 (-1.30%)
  
  
  ***************************
  Time-Step Critical Elements
  ***************************
  Link WS02006252WS02006251 (33.48%)
  Link WS02006238WS02006235 (17.09%)
  Link YS02001791YS02001793 (13.40%)
  Link WS02004404WS02004405 (6.77%)
  Link WS02006235WS02006234 (5.41%)
  
  
  ********************************
  Highest Flow Instability Indexes
  ********************************
  Link WS02006113WS02006111 (45)
  Link WS02006252WS02006251 (34)
  Link WS02006111WS02006112 (29)
  Link WS02006256WS02006235 (28)
  Link YS02001602YS02001605 (26)
  
  
  *************************
  Routing Time Step Summary
  *************************
  Minimum Time Step           :     0.02 sec
  Average Time Step           :     2.13 sec
  Maximum Time Step           :    30.00 sec
  Percent in Steady State     :    -0.00
  Average Iterations per Step :     4.29
  Percent Not Converging      :    29.93
  
  
  ***************************
  Subcatchment Runoff Summary
  ***************************
  
  ------------------------------------------------------------------------------------------------------------------------------
                            Total      Total      Total      Total     Imperv       Perv      Total       Total     Peak  Runoff
                           Precip      Runon       Evap      Infil     Runoff     Runoff     Runoff      Runoff   Runoff   Coeff
  Subcatchment                 mm         mm         mm         mm         mm         mm         mm    10^6 ltr      LPS
  ------------------------------------------------------------------------------------------------------------------------------
  sub60                     90.21       0.00       0.00       1.91      78.18       8.91      87.10        1.14   272.68   0.966
  sub61                     90.21       0.00       0.00       2.77      73.74      12.56      86.31        1.58   378.59   0.957
  sub62                     90.21       0.00       0.00       1.27      81.70       5.94      87.65        2.40   567.68   0.972
  sub63                     90.21       0.00       0.00       5.10      63.08      21.06      84.14        1.91   451.60   0.933
  sub64                     90.21       0.00       0.00       2.58      75.47      10.95      86.42        2.08   488.38   0.958
  sub65                     90.21       0.00       0.00       2.23      77.22       9.49      86.72        2.39   559.01   0.961
  sub66                     90.21       0.00       0.00       6.21      62.97      19.95      82.91        3.87   826.99   0.919
  sub67                     90.21       0.00       0.00       1.22      81.75       6.00      87.75        1.63   388.00   0.973
  sub68                     90.21       0.00       0.00       2.30      76.39      10.33      86.73        2.39   567.83   0.961
  sub69                     90.21       0.00       0.00       2.07      76.56      11.46      88.02        3.26   750.47   0.976
  sub70                     90.21       0.00       0.00       6.72      59.37      23.95      83.32        2.41   484.55   0.924
  sub71                     90.21       0.00       0.00       1.31      81.66       5.91      87.57        2.29   535.92   0.971
  sub72                     90.21       0.00       0.00       1.16      82.48       5.15      87.64        1.20   276.73   0.972
  
  
  ******************
  Node Depth Summary
  ******************
  
  ---------------------------------------------------------------------------------
                                 Average  Maximum  Maximum  Time of Max    Reported
                                   Depth    Depth      HGL   Occurrence   Max Depth
  Node                 Type       Meters   Meters   Meters  days hr:min      Meters
  ---------------------------------------------------------------------------------
  WS02003060           JUNCTION     0.23     0.38     5.31     0  01:39        0.38
  WS02003066           JUNCTION     0.19     0.29     5.85     0  01:39        0.29
  WS02003067           JUNCTION     0.50     0.69     6.01     0  01:39        0.69
  WS02003069           JUNCTION     0.25     0.42     5.01     0  01:40        0.42
  WS02003072           JUNCTION     0.31     0.49     4.86     0  01:41        0.49
  WS02003073           JUNCTION     0.18     0.29     4.36     0  01:41        0.29
  WS02004401           JUNCTION     0.59     0.87     6.87     0  01:36        0.87
  WS02004402           JUNCTION     0.63     0.89     6.85     0  01:36        0.89
  WS02004403           JUNCTION     0.65     0.91     6.84     0  01:36        0.91
  WS02004404           JUNCTION     0.73     0.99     6.84     0  01:37        0.97
  WS02004405           JUNCTION     0.72     0.96     6.81     0  01:36        0.96
  WS02004406           JUNCTION     0.73     0.95     6.78     0  01:37        0.95
  WS02004407           JUNCTION     0.17     0.29     6.61     0  01:37        0.29
  WS02004409           JUNCTION     0.38     0.65     6.42     0  01:38        0.65
  WS02004410           JUNCTION     0.41     0.67     6.39     0  01:38        0.67
  WS02004411           JUNCTION     0.43     0.68     6.36     0  01:38        0.68
  WS02004412           JUNCTION     0.45     0.69     6.33     0  01:38        0.69
  WS02004413           JUNCTION     0.62     0.85     6.32     0  01:39        0.85
  WS02006109           JUNCTION     0.64     1.24     7.85     0  00:00        0.97
  WS02006110           JUNCTION     0.64     1.45     8.04     0  00:00        0.92
  WS02006111           JUNCTION     0.17     1.67     8.37     0  00:00        0.54
  WS02006112           JUNCTION     0.75     2.68     8.56     0  00:00        1.21
  WS02006113           JUNCTION     0.26     1.50     8.40     0  00:00        0.45
  WS02006115           JUNCTION     0.47     1.69     7.83     0  00:00        0.86
  WS02006116           JUNCTION     0.56     1.11     7.15     0  00:00        0.84
  WS02006228           JUNCTION     0.63     1.64     8.29     0  00:00        1.01
  WS02006229           JUNCTION     0.60     1.31     8.00     0  00:00        1.02
  WS02006230           JUNCTION     0.59     1.24     7.98     0  03:20        1.10
  WS02006231           JUNCTION     0.39     1.25     8.37     0  03:22        1.05
  WS02006232           JUNCTION     0.52     1.16     8.19     0  03:21        1.13
  WS02006234           JUNCTION     0.44     1.35     8.51     0  03:30        1.09
  WS02006235           JUNCTION     0.48     1.37     8.53     0  03:21        1.19
  WS02006238           JUNCTION     0.51     1.41     8.55     0  03:22        1.29
  WS02006239           JUNCTION     0.48     1.41     8.61     0  03:33        1.41
  WS02006240           JUNCTION     0.46     1.49     8.78     0  01:26        1.45
  WS02006242           JUNCTION     0.54     1.53     8.80     0  03:33        1.53
  WS02006243           JUNCTION     0.45     1.48     8.90     0  01:25        1.39
  WS02006245           JUNCTION     0.46     1.32     8.80     0  03:33        1.32
  WS02006247           JUNCTION     0.49     1.27     8.77     0  03:33        1.27
  WS02006248           JUNCTION     0.45     1.10     8.69     0  03:20        1.10
  WS02006249           JUNCTION     0.49     1.09     8.69     0  01:26        1.09
  WS02006251           JUNCTION     0.48     1.48     9.15     0  00:00        1.21
  WS02006252           JUNCTION     0.35     1.50     9.74     0  01:24        0.77
  WS02006256           JUNCTION     0.80     2.35     9.28     0  00:00        2.35
  WSF200               JUNCTION     0.16     0.29     5.52     0  01:39        0.28
  YS02001580           JUNCTION     0.18     1.05     9.59     0  01:13        0.77
  YS02001583           JUNCTION     0.22     1.02     9.51     0  01:13        0.82
  YS02001586           JUNCTION     0.33     1.13     9.30     0  01:13        1.13
  YS02001590           JUNCTION     0.44     1.39     9.26     0  01:49        1.39
  YS02001593           JUNCTION     0.38     1.30     9.16     0  01:13        1.29
  YS02001596           JUNCTION     0.51     1.67     9.08     0  01:13        1.65
  YS02001600           JUNCTION     0.59     1.87     9.00     0  01:13        1.86
  YS02001601           JUNCTION     0.77     2.06     8.90     0  01:12        2.06
  YS02001602           JUNCTION     0.67     1.87     8.77     0  01:13        1.87
  YS02001605           JUNCTION     0.63     1.78     8.68     0  01:24        1.78
  YS02001607           JUNCTION     0.60     1.68     8.53     0  01:50        1.68
  YS02001610           JUNCTION     0.65     1.68     8.48     0  01:13        1.68
  YS02001613           JUNCTION     0.60     1.67     8.51     0  01:13        1.66
  YS02001616           JUNCTION     0.54     1.61     8.52     0  01:50        1.61
  YS02001619           JUNCTION     0.52     1.59     8.52     0  01:13        1.56
  YS02001622           JUNCTION     0.51     1.56     8.47     0  01:13        1.56
  YS02001625           JUNCTION     0.76     1.78     8.38     0  01:13        1.78
  YS02001629           JUNCTION     0.65     1.85     8.40     0  01:13        1.85
  YS02001633           JUNCTION     0.72     2.08     8.53     0  01:49        2.08
  YS02001641           JUNCTION     0.69     2.10     8.54     0  01:49        2.10
  YS02001644           JUNCTION     0.68     1.92     8.35     0  01:26        1.92
  YS02001647           JUNCTION     0.47     1.90     8.51     0  01:49        1.90
  YS02001649           JUNCTION     0.53     2.05     8.44     0  01:49        2.05
  YS02001652           JUNCTION     0.42     2.06     8.66     0  02:32        1.88
  YS02001655           JUNCTION     0.33     2.20     9.05     0  02:32        1.52
  YS02001658           JUNCTION     0.24     1.96     9.10     0  01:28        1.06
  YS02001661           JUNCTION     0.20     0.77     8.17     0  01:35        0.76
  YS02001664           JUNCTION     0.07     0.25     8.18     0  01:33        0.25
  YS02001745           JUNCTION     0.10     0.67     8.18     0  01:49        0.64
  YS02001748           JUNCTION     0.23     1.42     8.49     0  01:51        1.12
  YS02001751           JUNCTION     0.29     1.67     8.55     0  02:15        1.28
  YS02001754           JUNCTION     0.38     1.78     8.39     0  01:28        1.76
  YS02001757           JUNCTION     0.55     2.21     8.47     0  01:49        2.21
  YS02001759           JUNCTION     0.49     2.21     8.57     0  01:49        2.21
  YS02001762           JUNCTION     0.48     2.15     8.55     0  01:49        2.15
  YS02001765           JUNCTION     0.46     2.10     8.55     0  01:49        2.10
  YS02001767           JUNCTION     0.45     2.03     8.52     0  01:49        2.03
  YS02001770           JUNCTION     0.46     1.95     8.44     0  01:49        1.95
  YS02001774           JUNCTION     0.53     2.05     8.47     0  01:49        2.05
  YS02001779           JUNCTION     0.36     1.68     8.37     0  01:33        1.68
  YS02001783           JUNCTION     0.33     1.26     7.40     0  01:17        1.21
  YS02001784           JUNCTION     0.32     1.13     7.20     0  01:17        1.10
  YS02001786           JUNCTION     0.27     0.89     6.92     0  01:17        0.86
  YS02001788           JUNCTION     0.19     0.62     6.60     0  01:27        0.62
  YS02001790           JUNCTION     0.22     0.72     6.37     0  01:31        0.72
  YS02001791           JUNCTION     0.14     0.44     5.91     0  01:30        0.43
  YS02001793           JUNCTION     0.07     0.21     5.04     0  01:36        0.21
  YS02001882           JUNCTION     0.42     1.65     8.36     0  01:17        1.62
  YS02001884           JUNCTION     0.51     1.74     8.36     0  01:17        1.70
  YS02001887           JUNCTION     0.58     1.81     8.34     0  01:17        1.78
  YS02001890           JUNCTION     0.60     1.81     8.32     0  01:17        1.80
  YS02001895           JUNCTION     0.39     1.56     8.31     0  01:17        1.55
  YS02001898           JUNCTION     0.39     1.56     8.30     0  01:17        1.55
  YS02001901           JUNCTION     0.51     1.68     8.29     0  01:33        1.67
  YS02001904           JUNCTION     0.49     1.64     8.27     0  01:30        1.64
  YS02001907           JUNCTION     0.79     1.96     8.25     0  01:17        1.96
  YS02001910           JUNCTION     0.60     1.97     8.48     0  01:17        1.79
  YS02001915           JUNCTION     0.42     1.92     8.64     0  01:17        1.63
  YS02001918           JUNCTION     0.25     1.81     8.88     0  01:17        1.32
  YS02001920           JUNCTION     0.32     2.00     9.01     0  01:17        1.49
  YS02001923           JUNCTION     0.21     1.84     9.10     0  01:17        1.43
  YS02001926           JUNCTION     0.22     1.69     9.13     0  01:17        1.26
  YS02001929           JUNCTION     0.13     1.47     9.16     0  01:17        1.15
  YS02006553           JUNCTION     0.79     1.97     8.25     0  01:17        1.96
  YS02006556           JUNCTION     0.76     1.93     8.24     0  01:49        1.93
  YS02006558           JUNCTION     0.80     1.96     8.23     0  01:17        1.95
  YS02006561           JUNCTION     0.21     0.94     7.60     0  01:17        0.87
  YS02163301           JUNCTION     0.67     2.00     8.51     0  01:49        2.00
  YS02163601           JUNCTION     0.75     2.08     8.48     0  01:49        2.08
  YS02164001           JUNCTION     0.68     2.10     8.56     0  01:49        2.10
  CC-1                 OUTFALL      0.00     0.00     0.00     0  00:00        0.00
  CC-2                 OUTFALL      0.00     0.00     0.00     0  00:00        0.00
  JK-1                 OUTFALL      0.00     0.00     0.00     0  00:00        0.00
  JK-2                 OUTFALL      0.00     0.00     0.00     0  00:00        0.00
  WSC                  OUTFALL      0.18     0.29     0.96     0  01:42        0.29
  CC-storage           STORAGE      0.91     1.88     7.38     0  02:29        1.88
  JK-storage           STORAGE      1.21     4.01     4.81     0  01:15        3.75
  
  
  *******************
  Node Inflow Summary
  *******************
  
  -------------------------------------------------------------------------------------------------
                                  Maximum  Maximum                  Lateral       Total        Flow
                                  Lateral    Total  Time of Max      Inflow      Inflow     Balance
                                   Inflow   Inflow   Occurrence      Volume      Volume       Error
  Node                 Type           LPS      LPS  days hr:min    10^6 ltr    10^6 ltr     Percent
  -------------------------------------------------------------------------------------------------
  WS02003060           JUNCTION     16.53   534.19     0  01:39       0.476        5.65       0.040
  WS02003066           JUNCTION      0.00   517.03     0  01:39           0        5.17       0.026
  WS02003067           JUNCTION      0.00   516.69     0  01:39           0        5.18       0.079
  WS02003069           JUNCTION      0.32   534.53     0  01:40     0.00922        5.66       0.067
  WS02003072           JUNCTION      0.00   533.13     0  01:40           0        5.65       0.123
  WS02003073           JUNCTION      1.82   533.93     0  01:41      0.0524         5.7       0.095
  WS02004401           JUNCTION      0.00  1791.60     0  00:00           0        5.29       0.204
  WS02004402           JUNCTION      0.00  1254.90     0  00:01           0        5.27       0.206
  WS02004403           JUNCTION      0.00   919.18     0  00:01           0        5.26       0.200
  WS02004404           JUNCTION      0.00   867.70     0  00:01           0        5.25       0.163
  WS02004405           JUNCTION      0.00   859.04     0  00:01           0        5.24       0.194
  WS02004406           JUNCTION      0.00   734.85     0  00:02           0        5.23       0.412
  WS02004407           JUNCTION      0.00   531.06     0  01:37           0        5.21       0.020
  WS02004409           JUNCTION      0.00   530.69     0  01:37           0        5.21       0.051
  WS02004410           JUNCTION      0.00   526.56     0  01:37           0        5.21       0.085
  WS02004411           JUNCTION      0.00   523.29     0  01:38           0         5.2       0.106
  WS02004412           JUNCTION      0.00   520.65     0  01:38           0         5.2       0.141
  WS02004413           JUNCTION      0.00   518.61     0  01:38           0        5.19       0.259
  WS02006109           JUNCTION      0.00  1446.81     0  00:00           0        5.18      -0.147
  WS02006110           JUNCTION      0.00   548.91     0  03:20           0        5.16      -1.053
  WS02006111           JUNCTION      0.00  1180.41     0  00:00           0        5.21      -0.801
  WS02006112           JUNCTION      0.00  2307.30     0  00:00           0        5.25      -0.003
  WS02006113           JUNCTION      0.00   559.15     0  03:20           0        5.18      -0.735
  WS02006115           JUNCTION      0.00   937.16     0  00:00           0        5.22      -0.676
  WS02006116           JUNCTION      0.00  1254.80     0  00:00           0        5.26      -0.475
  WS02006228           JUNCTION      0.00   869.18     0  00:00           0        5.16      -0.033
  WS02006229           JUNCTION      0.00   546.65     0  03:20           0        5.15      -0.061
  WS02006230           JUNCTION     10.28   687.18     0  00:00       0.296        5.14       0.035
  WS02006231           JUNCTION      0.00   572.30     0  03:50           0        4.83      -0.037
  WS02006232           JUNCTION      0.00   570.99     0  03:50           0        4.82       0.108
  WS02006234           JUNCTION      0.00   566.54     0  03:50           0        4.81      -0.099
  WS02006235           JUNCTION      0.00   569.22     0  01:20           0        4.83       0.065
  WS02006238           JUNCTION      0.00   429.28     0  03:32           0        4.54      -0.108
  WS02006239           JUNCTION      0.00   423.85     0  03:32           0        4.52      -0.077
  WS02006240           JUNCTION      0.00   422.69     0  03:31           0        4.51      -0.014
  WS02006242           JUNCTION      0.00   425.00     0  03:24           0         4.5      -0.067
  WS02006243           JUNCTION      0.00   426.12     0  03:24           0         4.5      -0.022
  WS02006245           JUNCTION      0.00   425.82     0  03:24           0        4.51       0.251
  WS02006247           JUNCTION      0.00   426.25     0  03:31           0        4.52       0.033
  WS02006248           JUNCTION      0.00   427.81     0  03:31           0        4.52       0.032
  WS02006249           JUNCTION      0.00   843.88     0  00:00           0        4.57       0.216
  WS02006251           JUNCTION      0.00   478.35     0  00:00           0        4.56      -0.276
  WS02006252           JUNCTION      0.00   400.00     0  00:00           0        4.48      -1.726
  WS02006256           JUNCTION      0.00   300.00     0  00:00           0       0.439      -1.488
  WSF200               JUNCTION      0.00   517.25     0  01:39           0        5.17       0.009
  YS02001580           JUNCTION      0.00   110.97     0  01:13           0     0.00506      -3.425
  YS02001583           JUNCTION      0.00   158.21     0  01:12           0      0.0163      -3.511
  YS02001586           JUNCTION    484.55   484.71     0  01:36        2.41        2.42       0.070
  YS02001590           JUNCTION      0.00   318.64     0  01:50           0        2.07      -0.033
  YS02001593           JUNCTION      0.00   318.34     0  01:54           0        2.07       0.002
  YS02001596           JUNCTION      0.00   318.22     0  01:54           0        2.07      -0.028
  YS02001600           JUNCTION      0.00   318.12     0  01:50           0        2.08       0.018
  YS02001601           JUNCTION    750.47  1068.14     0  01:33        3.26        5.33       0.009
  YS02001602           JUNCTION      0.00   581.67     0  01:12           0        3.23       0.010
  YS02001605           JUNCTION      0.00   581.46     0  01:12           0        2.95       0.011
  YS02001607           JUNCTION      0.00   581.23     0  01:13           0        2.95       0.057
  YS02001610           JUNCTION      0.00   556.44     0  01:12           0        2.95       0.085
  YS02001613           JUNCTION      0.00   550.08     0  01:13           0        2.18       0.079
  YS02001616           JUNCTION      0.00   553.02     0  01:13           0        2.19       0.026
  YS02001619           JUNCTION    826.99   927.84     0  01:13        3.87        6.05      -0.006
  YS02001622           JUNCTION      0.00   933.56     0  01:13           0        6.04      -0.009
  YS02001625           JUNCTION      0.00   938.79     0  01:13           0        6.04       0.190
  YS02001629           JUNCTION      0.00   940.44     0  01:13           0        4.49      -0.026
  YS02001633           JUNCTION    559.01  1351.36     0  01:16        2.39        6.89       0.040
  YS02001641           JUNCTION      0.00  1350.32     0  01:16           0        6.89       0.038
  YS02001644           JUNCTION    488.38  1751.56     0  01:17        2.08        8.95       0.034
  YS02001647           JUNCTION      0.00  1751.07     0  01:17           0        8.93      -0.004
  YS02001649           JUNCTION      0.00  2063.16     0  01:15           0        10.9       0.003
  YS02001652           JUNCTION      0.00   498.41     0  01:26           0        1.93      -0.072
  YS02001655           JUNCTION      0.00   557.38     0  01:19           0        1.93      -0.221
  YS02001658           JUNCTION      0.00   859.62     0  01:26           0        1.97      -0.796
  YS02001661           JUNCTION      0.00   463.45     0  01:25           0        1.97       0.078
  YS02001664           JUNCTION    451.60   451.60     0  01:33        1.91        1.91      -0.013
  YS02001745           JUNCTION    272.68   432.00     0  01:49        1.14        1.23       0.283
  YS02001748           JUNCTION      0.00   618.24     0  01:42           0        1.23      -1.284
  YS02001751           JUNCTION      0.00   455.59     0  01:25           0        1.16      -0.286
  YS02001754           JUNCTION      0.00   322.08     0  01:33           0        1.16      -0.104
  YS02001757           JUNCTION      0.00  3063.59     0  01:23           0          16       0.033
  YS02001759           JUNCTION    378.59   982.26     0  01:33        1.58        3.99      -0.037
  YS02001762           JUNCTION      0.00   601.30     0  01:33           0        2.41      -0.019
  YS02001765           JUNCTION      0.00   595.46     0  01:33           0         2.4      -0.011
  YS02001767           JUNCTION      0.00   590.73     0  01:33           0         2.4      -0.008
  YS02001770           JUNCTION    567.68   578.52     0  01:33         2.4        2.46      -0.042
  YS02001774           JUNCTION      0.00   139.94     0  01:15           0      0.0847       1.199
  YS02001779           JUNCTION      0.00   135.97     0  01:18           0      0.0273      -1.707
  YS02001783           JUNCTION      0.00  1148.76     0  01:32           0        6.42       0.001
  YS02001784           JUNCTION      0.00  1148.74     0  01:32           0        6.42       0.000
  YS02001786           JUNCTION      0.00  1148.47     0  01:32           0        6.42       0.004
  YS02001788           JUNCTION      0.00  1148.61     0  01:32           0        6.42       0.001
  YS02001790           JUNCTION      0.00  1160.19     0  01:33           0        6.42       0.017
  YS02001791           JUNCTION      0.00  1279.64     0  01:27           0        6.42      -0.035
  YS02001793           JUNCTION      0.00  1230.10     0  01:33           0        6.42       0.003
  YS02001882           JUNCTION      0.00    80.39     0  01:11           0      0.0152       3.156
  YS02001884           JUNCTION      0.00   169.00     0  01:11           0      0.0525       4.041
  YS02001887           JUNCTION    388.00   388.89     0  01:31        1.63        1.67       0.259
  YS02001890           JUNCTION      0.00   389.90     0  01:29           0        1.62       0.253
  YS02001895           JUNCTION      0.00   388.87     0  01:32           0        1.62       0.181
  YS02001898           JUNCTION      0.00   389.40     0  01:31           0        1.62      -0.083
  YS02001901           JUNCTION      0.00   391.62     0  01:15           0        1.62       0.172
  YS02001904           JUNCTION      0.00   393.57     0  01:15           0        1.64       0.142
  YS02001907           JUNCTION      0.00  1271.88     0  01:18           0        5.14       0.330
  YS02001910           JUNCTION      0.00   891.62     0  01:18           0        3.49       0.196
  YS02001915           JUNCTION    535.92   890.73     0  01:18        2.29        3.53       0.018
  YS02001918           JUNCTION      0.00   428.44     0  01:18           0        1.26       0.001
  YS02001920           JUNCTION      0.00   427.21     0  01:18           0        1.24       0.051
  YS02001923           JUNCTION      0.00   368.14     0  01:16           0        1.23      -0.020
  YS02001926           JUNCTION      0.00   440.51     0  01:17           0        1.21      -0.028
  YS02001929           JUNCTION    276.73   284.07     0  01:17         1.2        1.21      -0.020
  YS02006553           JUNCTION      0.00   783.13     0  02:01           0        4.11       0.284
  YS02006556           JUNCTION      0.00   783.25     0  02:00           0        4.13       0.178
  YS02006558           JUNCTION    567.83  1149.78     0  01:32        2.39        6.47       0.053
  YS02006561           JUNCTION      0.00  1148.47     0  01:32           0        6.42      -0.005
  YS02163301           JUNCTION      0.00   910.89     0  01:16           0         4.5       0.030
  YS02163601           JUNCTION      0.00  1350.95     0  01:16           0        6.87       0.070
  YS02164001           JUNCTION      0.00  1351.26     0  01:16           0        6.88       0.030
  CC-1                 OUTFALL       0.00   683.00     0  00:00           0        6.56       0.000
  CC-2                 OUTFALL       0.00   683.00     0  00:00           0        5.84       0.000
  JK-1                 OUTFALL       0.00  1000.00     0  00:00           0        3.49       0.000
  JK-2                 OUTFALL       0.00  1000.00     0  01:15           0         2.6       0.000
  WSC                  OUTFALL       0.00   532.05     0  01:42           0        5.69       0.000
  CC-storage           STORAGE       0.00  3063.92     0  01:23           0        18.2      -0.182
  JK-storage           STORAGE       0.00  1229.47     0  01:19           0        6.57      -0.241
  
  
  **********************
  Node Surcharge Summary
  **********************
  
  Surcharging occurs when water rises above the top of the highest conduit.
  ---------------------------------------------------------------------
                                               Max. Height   Min. Depth
                                   Hours       Above Crown    Below Rim
  Node                 Type      Surcharged         Meters       Meters
  ---------------------------------------------------------------------
  WS02006109           JUNCTION        2.56          0.416        1.404
  WS02006110           JUNCTION        0.15          0.544        1.306
  WS02006111           JUNCTION        0.01          0.856        1.014
  WS02006112           JUNCTION        0.12          1.680        0.000
  WS02006113           JUNCTION        0.01          0.705        1.225
  WS02006115           JUNCTION        0.01          0.682        1.568
  WS02006116           JUNCTION        0.01          0.053        2.237
  WS02006228           JUNCTION        2.55          0.810        1.390
  WS02006229           JUNCTION        2.57          0.510        1.940
  WS02006230           JUNCTION        0.15          0.160        1.410
  WS02006231           JUNCTION        0.19          0.538        0.992
  WS02006232           JUNCTION        2.60          0.456        1.024
  WS02006234           JUNCTION        0.49          0.634        0.606
  WS02006235           JUNCTION        2.56          0.660        0.630
  WS02006238           JUNCTION        2.59          0.685        0.745
  WS02006239           JUNCTION        2.51          0.666        0.624
  WS02006240           JUNCTION        2.51          0.779        0.611
  WS02006242           JUNCTION        2.52          0.801        0.019
  WS02006243           JUNCTION        2.51          0.770        0.000
  WS02006245           JUNCTION        2.50          0.605        0.245
  WS02006247           JUNCTION        2.50          0.558        0.202
  WS02006248           JUNCTION        2.50          0.380        0.000
  WS02006249           JUNCTION        2.50          0.390        0.000
  WS02006251           JUNCTION        0.25          0.453        0.727
  WS02006252           JUNCTION        2.93          1.100        0.000
  WS02006256           JUNCTION        7.47          2.050        0.000
  YS02001580           JUNCTION        1.26          0.450        0.000
  YS02001583           JUNCTION        1.27          0.378        0.122
  YS02001586           JUNCTION        1.57          0.510        0.000
  YS02001590           JUNCTION        1.76          0.744        0.006
  YS02001593           JUNCTION        1.77          0.681        0.159
  YS02001596           JUNCTION        1.89          0.936        0.134
  YS02001600           JUNCTION        1.96          1.188        0.002
  YS02001601           JUNCTION        2.13          1.440        0.000
  YS02001602           JUNCTION        2.08          1.270        0.000
  YS02001605           JUNCTION        2.06          1.180        0.000
  YS02001607           JUNCTION        1.79          0.680        0.000
  YS02001610           JUNCTION        1.82          0.680        0.000
  YS02001613           JUNCTION        1.79          0.670        0.030
  YS02001616           JUNCTION        1.73          0.610        0.000
  YS02001619           JUNCTION        1.71          0.590        0.020
  YS02001622           JUNCTION        1.71          0.565        0.055
  YS02001625           JUNCTION        1.88          0.780        0.000
  YS02001629           JUNCTION        1.58          0.470        0.000
  YS02001633           JUNCTION        1.90          1.060        0.000
  YS02001641           JUNCTION        1.88          1.100        0.000
  YS02001644           JUNCTION        1.87          0.920        0.000
  YS02001647           JUNCTION        1.65          0.900        0.000
  YS02001649           JUNCTION        1.80          1.050        0.000
  YS02001652           JUNCTION        1.50          1.029        0.101
  YS02001655           JUNCTION        1.08          1.200        0.000
  YS02001658           JUNCTION        0.16          0.957        0.343
  YS02001748           JUNCTION        0.02          0.336        0.854
  YS02001751           JUNCTION        0.64          0.672        0.528
  YS02001754           JUNCTION        1.35          0.731        0.419
  YS02001757           JUNCTION        1.84          1.210        0.000
  YS02001759           JUNCTION        1.77          1.210        0.000
  YS02001762           JUNCTION        1.74          1.150        0.000
  YS02001765           JUNCTION        1.71          1.100        0.000
  YS02001767           JUNCTION        1.66          1.030        0.000
  YS02001770           JUNCTION        1.61          0.920        0.000
  YS02001774           JUNCTION        1.73          1.050        0.000
  YS02001779           JUNCTION        1.31          0.680        0.000
  YS02001783           JUNCTION        1.05          0.459        1.141
  YS02001784           JUNCTION        1.01          0.331        1.159
  YS02001786           JUNCTION        0.82          0.086        1.344
  YS02001882           JUNCTION        0.96          0.645        0.185
  YS02001884           JUNCTION        0.98          0.678        0.192
  YS02001887           JUNCTION        1.04          0.756        0.194
  YS02001890           JUNCTION        1.05          0.760        0.000
  YS02001895           JUNCTION        0.94          0.563        0.187
  YS02001898           JUNCTION        0.92          0.531        0.209
  YS02001901           JUNCTION        1.01          0.679        0.191
  YS02001904           JUNCTION        1.00          0.641        0.209
  YS02001907           JUNCTION        1.40          0.950        0.000
  YS02001910           JUNCTION        1.10          0.968        0.132
  YS02001915           JUNCTION        0.96          0.917        0.083
  YS02001918           JUNCTION        0.79          0.810        0.000
  YS02001920           JUNCTION        0.82          1.001        0.139
  YS02001923           JUNCTION        0.01          0.625        0.195
  YS02001926           JUNCTION        0.01          0.689        0.211
  YS02001929           JUNCTION        0.01          0.466        0.314
  YS02006553           JUNCTION        1.44          0.965        0.225
  YS02006556           JUNCTION        1.27          0.886        0.464
  YS02006558           JUNCTION        1.25          0.862        0.538
  YS02006561           JUNCTION        0.74          0.135        1.015
  YS02163301           JUNCTION        1.89          0.995        0.035
  YS02163601           JUNCTION        1.93          1.080        0.000
  YS02164001           JUNCTION        1.88          1.100        0.000
  
  
  *********************
  Node Flooding Summary
  *********************
  
  Flooding refers to all water that overflows a node, whether it ponds or not.
  --------------------------------------------------------------------------
                                                             Total   Maximum
                                 Maximum   Time of Max       Flood    Ponded
                        Hours       Rate    Occurrence      Volume     Depth
  Node                 Flooded       LPS   days hr:min    10^6 ltr    Meters
  --------------------------------------------------------------------------
  WS02006112              0.01   1405.86      0  00:00       0.047     0.000
  WS02006243              0.01     98.71      0  01:25       0.000     0.000
  WS02006248              0.01     12.32      0  03:33       0.000     0.000
  WS02006249              0.21    113.81      0  01:26       0.046     0.000
  WS02006252              0.01      0.91      0  01:24       0.000     0.000
  WS02006256              0.41    289.74      0  03:22       0.146     0.000
  YS02001580              0.01     83.62      0  01:13       0.000     0.000
  YS02001586              0.94    167.45      0  01:37       0.332     0.000
  YS02001601              1.43    670.31      0  01:33       2.102     0.000
  YS02001602              1.33     61.98      0  02:13       0.275     0.000
  YS02001605              0.01      0.23      0  01:30       0.000     0.000
  YS02001607              0.01      0.46      0  01:50       0.000     0.000
  YS02001610              1.19    338.20      0  01:37       0.777     0.000
  YS02001616              0.01      0.79      0  01:50       0.000     0.000
  YS02001625              1.20    741.51      0  01:35       1.538     0.000
  YS02001629              0.06    206.73      0  01:13       0.002     0.000
  YS02001633              0.01      0.97      0  01:49       0.000     0.000
  YS02001641              0.01      1.25      0  01:49       0.000     0.000
  YS02001644              0.02     47.26      0  01:49       0.000     0.000
  YS02001647              0.01      1.42      0  01:49       0.000     0.000
  YS02001649              0.01      3.71      0  01:49       0.000     0.000
  YS02001655              0.01    178.22      0  02:32       0.000     0.000
  YS02001757              0.01      2.66      0  01:49       0.000     0.000
  YS02001759              0.01      2.35      0  01:49       0.000     0.000
  YS02001762              0.01      3.32      0  01:49       0.000     0.000
  YS02001765              0.01      2.96      0  01:49       0.000     0.000
  YS02001767              0.01      2.44      0  01:49       0.000     0.000
  YS02001770              0.01      7.17      0  01:49       0.000     0.000
  YS02001774              0.01      4.06      0  01:49       0.000     0.000
  YS02001779              0.01     28.96      0  01:49       0.000     0.000
  YS02001890              0.01     14.79      0  01:17       0.000     0.000
  YS02001907              0.70    653.28      0  01:18       1.030     0.000
  YS02001918              0.01     26.13      0  01:17       0.000     0.000
  YS02163601              0.01      1.86      0  01:49       0.000     0.000
  YS02164001              0.01      2.80      0  01:49       0.000     0.000
  
  
  **********************
  Storage Volume Summary
  **********************
  
  --------------------------------------------------------------------------------------------------
                         Average     Avg  Evap Exfil       Maximum     Max    Time of Max    Maximum
                          Volume    Pcnt  Pcnt  Pcnt        Volume    Pcnt     Occurrence    Outflow
  Storage Unit           1000 m3    Full  Loss  Loss       1000 m3    Full    days hr:min        LPS
  --------------------------------------------------------------------------------------------------
  CC-storage               2.528      39     0     0         5.252      82       0  02:29    1794.93
  JK-storage               0.061      21     0     0         0.202      69       0  01:15    2300.00
  
  
  ***********************
  Outfall Loading Summary
  ***********************
  
  -----------------------------------------------------------
                         Flow       Avg       Max       Total
                         Freq      Flow      Flow      Volume
  Outfall Node           Pcnt       LPS       LPS    10^6 ltr
  -----------------------------------------------------------
  CC-1                  41.29    683.00    683.00       6.556
  CC-2                  33.87    683.00    683.00       5.838
  JK-1                  16.19   1000.00   1000.00       3.489
  JK-2                  10.87   1000.00   1000.00       2.598
  WSC                   99.99    240.91    532.05       5.692
  -----------------------------------------------------------
  System                40.44   3606.91    532.05      24.173
  
  
  ********************
  Link Flow Summary
  ********************
  
  -----------------------------------------------------------------------------
                                 Maximum  Time of Max   Maximum    Max/    Max/
                                  |Flow|   Occurrence   |Veloc|    Full    Full
  Link                 Type          LPS  days hr:min     m/sec    Flow   Depth
  -----------------------------------------------------------------------------
  1                    CONDUIT    532.05     0  01:42      2.79    0.19    0.29
  WS02003060WS02003069 CONDUIT    534.21     0  01:40      1.63    0.21    0.33
  WS02003066WSF200     CONDUIT    517.25     0  01:39      2.82    0.09    0.22
  WS02003067WS02003066 CONDUIT    517.03     0  01:39      1.18    0.17    0.41
  WS02003069WS02003072 CONDUIT    533.13     0  01:40      1.35    0.26    0.38
  WS02003072WS02003073 CONDUIT    532.11     0  01:41      1.42    1.15    0.37
  WS02004401WS02004402 CONDUIT   1254.90     0  00:01      2.61    1.51    0.88
  WS02004402WS02004403 CONDUIT    919.18     0  00:01      2.26    1.32    0.90
  WS02004403WS02004404 CONDUIT    867.70     0  00:01      2.00    0.63    0.95
  WS02004404WS02004405 CONDUIT    859.04     0  00:01      2.43    8.42    0.97
  WS02004405WS02004406 CONDUIT    734.85     0  00:02      2.27    1.45    0.96
  WS02004406WS02004407 CONDUIT    531.06     0  01:37      1.03    0.24    0.62
  WS02004407WS02004409 CONDUIT    530.69     0  01:37      1.97    0.19    0.47
  WS02004409WS02004410 CONDUIT    526.56     0  01:37      1.35    0.68    0.66
  WS02004410WS02004411 CONDUIT    523.29     0  01:38      1.29    0.71    0.67
  WS02004411WS02004412 CONDUIT    520.65     0  01:38      1.26    0.74    0.68
  WS02004412WS02004413 CONDUIT    518.61     0  01:38      1.26    0.35    0.77
  WS02004413WS02003067 CONDUIT    516.69     0  01:39      1.09    0.22    0.58
  WS02006109WS02006110 CONDUIT   1446.81     0  00:00      2.88    2.78    1.00
  WS02006110WS02006113 CONDUIT    559.15     0  03:20      1.35    0.51    1.00
  WS02006111WS02006112 CONDUIT   2307.30     0  00:00      9.18    1.10    1.00
  WS02006112WS02006115 CONDUIT    937.16     0  00:00      1.22    0.55    1.00
  WS02006113WS02006111 CONDUIT   1180.41     0  00:00      2.46    1.41    1.00
  WS02006115WS02006116 CONDUIT   1254.80     0  00:00      1.72    1.61    1.00
  WS02006116WS02004401 CONDUIT   1791.60     0  00:00      2.97    2.47    0.86
  WS02006228WS02006109 CONDUIT    869.18     0  00:00      1.91    3.80    1.00
  WS02006229WS02006228 CONDUIT    547.71     0  03:20      1.09    1.81    1.00
  WS02006230WS02006229 CONDUIT    676.90     0  00:00      1.89   15.06    1.00
  WS02006231WS02006230 CONDUIT    575.34     0  03:51      2.02    8.73    1.00
  WS02006232WS02006231 CONDUIT    572.30     0  03:50      1.77    1.20    1.00
  WS02006234WS02006232 CONDUIT    570.99     0  03:50      1.48    1.16    1.00
  WS02006235WS02006234 CONDUIT    566.54     0  03:50      1.47    5.98    1.00
  WS02006238WS02006235 CONDUIT    449.48     0  03:33      1.48    1.00    1.00
  WS02006239WS02006238 CONDUIT    429.28     0  03:32      1.12    1.37    1.00
  WS02006240WS02006239 CONDUIT    423.85     0  03:32      1.28    1.33    1.00
  WS02006242WS02006240 CONDUIT    422.69     0  03:31      1.11    1.68    1.00
  WS02006243WS02006242 CONDUIT    425.00     0  03:24      1.35    0.91    1.00
  WS02006245WS02006243 CONDUIT    426.12     0  03:24      1.46    1.26    1.00
  WS02006247WS02006245 CONDUIT    425.82     0  03:24      1.44    3.38    1.00
  WS02006248WS02006247 CONDUIT    426.25     0  03:31      1.51    0.93    1.00
  WS02006249WS02006248 CONDUIT    427.81     0  03:31      1.48    2.34    1.00
  WS02006251WS02006249 CONDUIT    843.88     0  00:00      3.03    2.43    1.00
  WS02006252WS02006251 CONDUIT    478.35     0  00:00     18.66    1.76    1.00
  WS02006256WS02006235 CONDUIT    288.74     0  00:01      4.23    3.06    1.00
  WSF200WS02003060     CONDUIT    517.66     0  01:39      2.04    0.11    0.28
  YS02001580YS02001583 CONDUIT    110.97     0  01:13      0.68    0.43    1.00
  YS02001583YS02001586 CONDUIT    146.16     0  01:12      0.64    0.22    1.00
  YS02001586YS02001590 CONDUIT    318.64     0  01:50      1.28    0.56    1.00
  YS02001590YS02001593 CONDUIT    318.34     0  01:54      1.13    2.00    1.00
  YS02001593YS02001596 CONDUIT    318.22     0  01:54      1.67    0.50    1.00
  YS02001596YS02001600 CONDUIT    318.12     0  01:50      1.23    0.62    1.00
  YS02001600YS02001601 CONDUIT    318.34     0  01:50      1.13    0.55    1.00
  YS02001601YS02001602 CONDUIT    581.67     0  01:12      2.06    2.10    1.00
  YS02001602YS02001605 CONDUIT    581.46     0  01:12      2.06   12.30    1.00
  YS02001605YS02001607 CONDUIT    581.23     0  01:13      2.06    3.19    1.00
  YS02001607YS02001610 CONDUIT    556.44     0  01:12      0.81    0.53    1.00
  YS02001610YS02001613 CONDUIT    550.08     0  01:13      0.77    0.63    1.00
  YS02001613YS02001616 CONDUIT    553.02     0  01:13      0.82    0.47    1.00
  YS02001616YS02001619 CONDUIT    510.75     0  01:13      0.85    0.89    1.00
  YS02001619YS02001622 CONDUIT    933.56     0  01:13      1.77    1.38    1.00
  YS02001622YS02001625 CONDUIT    938.79     0  01:13      1.20    0.50    1.00
  YS02001625YS02001629 CONDUIT    940.44     0  01:13      1.20    0.45    1.00
  YS02001629YS02163301 CONDUIT    910.89     0  01:16      1.16    1.12    1.00
  YS02001633YS02163601 CONDUIT   1350.95     0  01:16      1.72    1.42    1.00
  YS02001641YS02001644 CONDUIT   1350.12     0  01:17      1.72    4.36    1.00
  YS02001644YS02001647 CONDUIT   1751.07     0  01:17      2.26    1.03    1.00
  YS02001647YS02001649 CONDUIT   1746.48     0  01:16      2.36    0.92    1.00
  YS02001649YS02001757 CONDUIT   2034.23     0  01:16      2.63    1.23    1.00
  YS02001652YS02001649 CONDUIT    494.33     0  01:27      1.36    0.24    1.00
  YS02001655YS02001652 CONDUIT    498.41     0  01:26      1.80    0.24    1.00
  YS02001658YS02001655 CONDUIT    557.38     0  01:19      1.99    0.24    1.00
  YS02001661YS02001658 CONDUIT    859.62     0  01:26      2.27    0.34    0.85
  YS02001664YS02001661 CONDUIT    451.60     0  01:33      2.14    0.14    0.51
  YS02001745YS02001748 CONDUIT    618.24     0  01:42      2.11    0.24    0.69
  YS02001748YS02001751 CONDUIT    455.59     0  01:25      1.74    0.23    1.00
  YS02001751YS02001754 CONDUIT    322.08     0  01:33      1.66    0.16    1.00
  YS02001754YS02001757 CONDUIT    322.10     0  01:35      1.09    0.13    1.00
  YS02001757CaochengTiaoxuchi CONDUIT   3063.92     0  01:23      4.04    1.33    1.00
  YS02001759YS02001757 CONDUIT    986.45     0  01:33      1.33    0.70    1.00
  YS02001762YS02001759 CONDUIT    606.90     0  01:33      0.77    0.70    1.00
  YS02001765YS02001762 CONDUIT    601.30     0  01:33      0.85    0.56    1.00
  YS02001767YS02001765 CONDUIT    595.46     0  01:33      0.96    0.75    1.00
  YS02001770YS02001767 CONDUIT    590.73     0  01:33      0.94    2.34    1.00
  YS02001774YS02001770 CONDUIT    139.94     0  01:15      0.75    0.09    1.00
  YS02001779YS02001774 CONDUIT    135.97     0  01:18      0.20    0.07    1.00
  YS02001783YS02001784 CONDUIT   1148.74     0  01:32      2.29    1.58    1.00
  YS02001784YS02001785 CONDUIT   1148.47     0  01:32      2.28    2.67    1.00
  YS02001786YS02001788 CONDUIT   1148.61     0  01:32      2.46    2.21    0.89
  YS02001788YS02001790 CONDUIT   1160.19     0  01:33      2.70    0.86    0.83
  YS02001790YS02001791 CONDUIT   1279.64     0  01:27      3.42    1.39    0.70
  YS02001791YS02001793 CONDUIT   1230.10     0  01:33      6.76    0.53    0.40
  YS02001793JiankangQianchi CONDUIT   1229.47     0  01:19      2.47    0.10    0.61
  YS02001882YS02001884 CONDUIT     80.39     0  01:11      0.44    0.09    1.00
  YS02001884YS02001887 CONDUIT    169.00     0  01:11      0.41    0.23    1.00
  YS02001887YS02001890 CONDUIT    389.90     0  01:29      0.54    0.67    1.00
  YS02001890YS02001895 CONDUIT    388.87     0  01:32      0.50    0.18    1.00
  YS02001895YS02001898 CONDUIT    389.40     0  01:31      0.77    0.68    1.00
  YS02001898YS02001901 CONDUIT    391.62     0  01:15      0.77    0.25    1.00
  YS02001901YS02001904 CONDUIT    393.57     0  01:15      0.50    0.61    1.00
  YS02001904YS02001907 CONDUIT    396.28     0  01:15      0.50    0.14    1.00
  YS02001907YS02006553 CONDUIT    783.13     0  02:01      0.87    0.92    1.00
  YS02001910YS02001907 CONDUIT    891.89     0  01:18      1.14    0.50    1.00
  YS02001915YS02001910 CONDUIT    891.62     0  01:18      1.31    0.44    1.00
  YS02001918YS02001915 CONDUIT    428.84     0  01:18      0.55    0.24    1.00
  YS02001920YS02001918 CONDUIT    428.44     0  01:18      0.71    0.41    1.00
  YS02001923YS02001920 CONDUIT    427.21     0  01:18      0.82    0.19    1.00
  YS02001926YS02001923 CONDUIT    365.57     0  01:18      0.95    0.52    1.00
  YS02001929YS02001926 CONDUIT    358.82     0  01:18      1.09    0.17    1.00
  YS02006553YS02006556 CONDUIT    783.25     0  02:00      1.00    0.67    1.00
  YS02006556YS02006558 CONDUIT    784.08     0  02:00      1.00    0.62    1.00
  YS02006558YS02006561 CONDUIT   1148.47     0  01:32      4.06    2.54    1.00
  YS02006561YS02001783 CONDUIT   1148.76     0  01:32      2.29    0.59    1.00
  YS02163301YS02001633 CONDUIT    912.06     0  01:16      1.16    0.86    1.00
  YS02163601YS02164001 CONDUIT   1351.26     0  01:16      1.72    1.20    1.00
  YS02164001YS02001641 CONDUIT   1350.32     0  01:16      1.72    1.84    1.00
  CC-R1                PUMP       683.00     0  00:00              1.00
  CC-R2                PUMP       683.00     0  00:00              1.00
  CC-S1                PUMP       200.00     0  00:00              1.00
  CC-S2                PUMP       200.00     0  00:00              1.00
  JK-R1                PUMP      1000.00     0  00:00              1.00
  JK-R2                PUMP      1000.00     0  01:15              1.00
  JK-S                 PUMP       300.00     0  00:00              1.00
  
  
  ***************************
  Flow Classification Summary
  ***************************
  
  -------------------------------------------------------------------------------------
                      Adjusted    ---------- Fraction of Time in Flow Class ---------- 
                       /Actual         Up    Down  Sub   Sup   Up    Down  Norm  Inlet 
  Conduit               Length    Dry  Dry   Dry   Crit  Crit  Crit  Crit  Ltd   Ctrl  
  -------------------------------------------------------------------------------------
  1                       1.00   0.00  0.00  0.00  0.00  1.00  0.00  0.00  0.26  0.00
  WS02003060WS02003069    1.00   0.00  0.00  0.00  0.96  0.04  0.00  0.00  0.64  0.00
  WS02003066WSF200        1.00   0.04  0.00  0.00  0.00  0.96  0.00  0.00  0.94  0.00
  WS02003067WS02003066    1.00   0.02  0.01  0.00  0.97  0.00  0.00  0.00  0.00  0.00
  WS02003069WS02003072    1.00   0.00  0.00  0.00  1.00  0.00  0.00  0.00  0.66  0.00
  WS02003072WS02003073    1.00   0.00  0.00  0.00  0.00  0.00  0.00  1.00  0.00  0.00
  WS02004401WS02004402    1.00   0.00  0.00  0.00  1.00  0.00  0.00  0.00  0.00  0.00
  WS02004402WS02004403    1.00   0.00  0.00  0.00  1.00  0.00  0.00  0.00  0.00  0.00
  WS02004403WS02004404    1.00   0.00  0.00  0.00  1.00  0.00  0.00  0.00  0.00  0.00
  WS02004404WS02004405    1.00   0.00  0.00  0.00  1.00  0.00  0.00  0.00  0.01  0.00
  WS02004405WS02004406    1.00   0.00  0.00  0.00  1.00  0.00  0.00  0.00  0.00  0.00
  WS02004406WS02004407    1.00   0.00  0.00  0.00  1.00  0.00  0.00  0.00  0.00  0.00
  WS02004407WS02004409    1.00   0.00  0.00  0.00  0.99  0.01  0.00  0.00  0.99  0.00
  WS02004409WS02004410    1.00   0.00  0.00  0.00  1.00  0.00  0.00  0.00  0.00  0.00
  WS02004410WS02004411    1.00   0.00  0.00  0.00  1.00  0.00  0.00  0.00  0.00  0.00
  WS02004411WS02004412    1.00   0.00  0.00  0.00  0.99  0.00  0.00  0.00  0.00  0.00
  WS02004412WS02004413    1.00   0.00  0.00  0.00  0.99  0.01  0.00  0.00  0.00  0.00
  WS02004413WS02003067    1.00   0.01  0.01  0.00  0.00  0.00  0.98  0.00  0.00  0.00
  WS02006109WS02006110    1.00   0.00  0.00  0.00  1.00  0.00  0.00  0.00  0.00  0.00
  WS02006110WS02006113    1.00   0.00  0.00  0.00  1.00  0.00  0.00  0.00  0.00  0.00
  WS02006111WS02006112    1.00   0.00  0.00  0.00  1.00  0.00  0.00  0.00  1.00  0.00
  WS02006112WS02006115    1.00   0.00  0.00  0.00  1.00  0.00  0.00  0.00  0.00  0.00
  WS02006113WS02006111    1.00   0.00  0.00  0.00  0.00  1.00  0.00  0.00  0.15  0.00
  WS02006115WS02006116    1.00   0.00  0.00  0.00  1.00  0.00  0.00  0.00  0.00  0.00
  WS02006116WS02004401    1.00   0.00  0.00  0.00  1.00  0.00  0.00  0.00  0.00  0.00
  WS02006228WS02006109    1.00   0.00  0.00  0.00  1.00  0.00  0.00  0.00  0.00  0.00
  WS02006229WS02006228    1.00   0.00  0.00  0.00  1.00  0.00  0.00  0.00  0.00  0.00
  WS02006230WS02006229    1.00   0.00  0.00  0.00  1.00  0.00  0.00  0.00  0.00  0.00
  WS02006231WS02006230    1.00   0.00  0.00  0.00  0.40  0.00  0.60  0.00  0.00  0.00
  WS02006232WS02006231    1.00   0.00  0.00  0.00  0.99  0.00  0.00  0.00  0.00  0.00
  WS02006234WS02006232    1.00   0.00  0.00  0.00  1.00  0.00  0.00  0.00  0.02  0.00
  WS02006235WS02006234    1.00   0.00  0.00  0.00  0.96  0.00  0.04  0.00  0.00  0.00
  WS02006238WS02006235    1.00   0.00  0.00  0.00  1.00  0.00  0.00  0.00  0.00  0.00
  WS02006239WS02006238    1.00   0.00  0.00  0.00  1.00  0.00  0.00  0.00  0.06  0.00
  WS02006240WS02006239    1.00   0.00  0.00  0.00  0.84  0.00  0.00  0.16  0.01  0.00
  WS02006242WS02006240    1.00   0.00  0.00  0.00  0.99  0.00  0.01  0.00  0.00  0.00
  WS02006243WS02006242    1.00   0.00  0.00  0.00  0.98  0.00  0.00  0.01  0.55  0.00
  WS02006245WS02006243    1.00   0.00  0.00  0.00  0.94  0.00  0.00  0.06  0.00  0.00
  WS02006247WS02006245    1.00   0.00  0.00  0.00  0.98  0.00  0.00  0.02  0.00  0.00
  WS02006248WS02006247    1.00   0.00  0.00  0.00  0.99  0.00  0.00  0.01  0.51  0.00
  WS02006249WS02006248    1.00   0.00  0.00  0.00  0.69  0.00  0.31  0.00  0.00  0.00
  WS02006251WS02006249    1.00   0.00  0.00  0.00  1.00  0.00  0.00  0.00  0.38  0.00
  WS02006252WS02006251    1.00   0.00  0.20  0.00  0.04  0.00  0.76  0.00  0.00  0.00
  WS02006256WS02006235    1.00   0.00  0.00  0.00  1.00  0.00  0.00  0.00  0.00  0.00
  WSF200WS02003060        1.00   0.00  0.04  0.00  0.21  0.76  0.00  0.00  0.58  0.00
  YS02001580YS02001583    1.00   0.14  0.49  0.00  0.37  0.00  0.00  0.00  0.64  0.00
  YS02001583YS02001586    1.00   0.24  0.30  0.00  0.46  0.00  0.00  0.00  0.64  0.00
  YS02001586YS02001590    1.00   0.11  0.00  0.00  0.65  0.03  0.00  0.21  0.26  0.00
  YS02001590YS02001593    1.00   0.11  0.00  0.00  0.31  0.00  0.58  0.00  0.00  0.00
  YS02001593YS02001596    1.00   0.11  0.00  0.00  0.32  0.01  0.00  0.56  0.01  0.00
  YS02001596YS02001600    1.00   0.11  0.00  0.00  0.35  0.01  0.00  0.53  0.02  0.00
  YS02001600YS02001601    1.00   0.11  0.00  0.00  0.89  0.00  0.00  0.00  0.55  0.00
  YS02001601YS02001602    1.00   0.11  0.00  0.00  0.89  0.00  0.00  0.00  0.00  0.00
  YS02001602YS02001605    1.00   0.11  0.00  0.00  0.89  0.00  0.00  0.00  0.00  0.00
  YS02001605YS02001607    1.00   0.11  0.00  0.00  0.89  0.00  0.00  0.00  0.00  0.00
  YS02001607YS02001610    1.00   0.11  0.00  0.00  0.89  0.00  0.00  0.00  0.00  0.00
  YS02001610YS02001613    1.00   0.11  0.00  0.00  0.89  0.00  0.00  0.00  0.00  0.00
  YS02001613YS02001616    1.00   0.11  0.00  0.00  0.89  0.00  0.00  0.00  0.00  0.00
  YS02001616YS02001619    1.00   0.11  0.00  0.00  0.89  0.00  0.00  0.00  0.00  0.00
  YS02001619YS02001622    1.00   0.11  0.00  0.00  0.88  0.01  0.00  0.00  0.27  0.00
  YS02001622YS02001625    1.00   0.11  0.00  0.00  0.89  0.00  0.00  0.00  0.01  0.00
  YS02001625YS02001629    1.00   0.11  0.01  0.00  0.32  0.00  0.56  0.00  0.00  0.00
  YS02001629YS02163301    1.00   0.11  0.00  0.00  0.89  0.00  0.00  0.00  0.00  0.00
  YS02001633YS02163601    1.00   0.11  0.00  0.00  0.89  0.00  0.00  0.00  0.00  0.00
  YS02001641YS02001644    1.00   0.11  0.00  0.00  0.89  0.00  0.00  0.00  0.00  0.00
  YS02001644YS02001647    1.00   0.11  0.00  0.00  0.89  0.00  0.00  0.00  0.00  0.00
  YS02001647YS02001649    1.00   0.11  0.00  0.00  0.55  0.33  0.00  0.00  0.55  0.00
  YS02001649YS02001757    1.00   0.00  0.11  0.00  0.52  0.37  0.00  0.00  0.13  0.00
  YS02001652YS02001649    1.00   0.11  0.00  0.00  0.88  0.01  0.00  0.00  0.56  0.00
  YS02001655YS02001652    1.00   0.11  0.00  0.00  0.35  0.00  0.00  0.53  0.03  0.00
  YS02001658YS02001655    1.00   0.11  0.00  0.00  0.78  0.11  0.00  0.00  0.61  0.00
  YS02001661YS02001658    1.00   0.11  0.00  0.00  0.52  0.37  0.00  0.00  0.65  0.00
  YS02001664YS02001661    1.00   0.11  0.00  0.00  0.78  0.11  0.00  0.00  0.87  0.00
  YS02001745YS02001748    1.00   0.11  0.00  0.00  0.29  0.00  0.00  0.59  0.07  0.00
  YS02001748YS02001751    1.00   0.11  0.00  0.00  0.81  0.08  0.00  0.00  0.60  0.00
  YS02001751YS02001754    1.00   0.11  0.00  0.00  0.34  0.00  0.00  0.54  0.02  0.00
  YS02001754YS02001757    1.00   0.00  0.11  0.00  0.89  0.00  0.00  0.00  0.58  0.00
  YS02001757CaochengTiaoxuchi    1.00   0.00  0.00  0.00  0.96  0.04  0.00  0.00  0.68  0.00
  YS02001759YS02001757    1.00   0.00  0.11  0.00  0.89  0.00  0.00  0.00  0.53  0.00
  YS02001762YS02001759    1.00   0.11  0.00  0.00  0.89  0.00  0.00  0.00  0.00  0.00
  YS02001765YS02001762    1.00   0.11  0.00  0.00  0.89  0.00  0.00  0.00  0.55  0.00
  YS02001767YS02001765    1.00   0.11  0.00  0.00  0.89  0.00  0.00  0.00  0.00  0.00
  YS02001770YS02001767    1.00   0.11  0.00  0.00  0.89  0.00  0.00  0.00  0.00  0.00
  YS02001774YS02001770    1.00   0.11  0.00  0.00  0.78  0.00  0.11  0.00  0.00  0.00
  YS02001779YS02001774    1.00   0.11  0.39  0.00  0.49  0.00  0.00  0.00  0.57  0.00
  YS02001783YS02001784    1.00   0.12  0.00  0.00  0.88  0.01  0.00  0.00  0.54  0.00
  YS02001784YS02001785    1.00   0.12  0.00  0.00  0.88  0.00  0.00  0.00  0.36  0.00
  YS02001786YS02001788    1.00   0.12  0.00  0.00  0.66  0.22  0.00  0.00  0.00  0.00
  YS02001788YS02001790    1.00   0.12  0.00  0.00  0.19  0.69  0.00  0.00  0.60  0.00
  YS02001790YS02001791    1.00   0.12  0.00  0.00  0.00  0.87  0.00  0.00  0.16  0.00
  YS02001791YS02001793    1.00   0.13  0.00  0.00  0.00  0.87  0.00  0.00  0.01  0.00
  YS02001793JiankangQianchi    1.00   0.00  0.13  0.00  0.75  0.12  0.00  0.00  0.86  0.00
  YS02001882YS02001884    1.00   0.11  0.00  0.00  0.89  0.00  0.00  0.00  0.00  0.00
  YS02001884YS02001887    1.00   0.11  0.00  0.00  0.89  0.00  0.00  0.00  0.00  0.00
  YS02001887YS02001890    1.00   0.11  0.00  0.00  0.89  0.00  0.00  0.00  0.00  0.00
  YS02001890YS02001895    1.00   0.11  0.00  0.00  0.89  0.00  0.00  0.00  0.00  0.00
  YS02001895YS02001898    1.00   0.11  0.00  0.00  0.88  0.00  0.01  0.00  0.00  0.00
  YS02001898YS02001901    1.00   0.11  0.00  0.00  0.88  0.00  0.00  0.00  0.00  0.00
  YS02001901YS02001904    1.00   0.11  0.00  0.00  0.89  0.00  0.00  0.00  0.00  0.00
  YS02001904YS02001907    1.00   0.11  0.00  0.00  0.89  0.00  0.00  0.00  0.00  0.00
  YS02001907YS02006553    1.00   0.11  0.00  0.00  0.89  0.00  0.00  0.00  0.00  0.00
  YS02001910YS02001907    1.00   0.11  0.00  0.00  0.89  0.00  0.00  0.00  0.00  0.00
  YS02001915YS02001910    1.00   0.11  0.00  0.00  0.88  0.01  0.00  0.00  0.00  0.00
  YS02001918YS02001915    1.00   0.11  0.00  0.00  0.89  0.00  0.00  0.00  0.63  0.00
  YS02001920YS02001918    1.00   0.11  0.00  0.00  0.89  0.00  0.00  0.00  0.00  0.00
  YS02001923YS02001920    1.00   0.11  0.00  0.00  0.89  0.00  0.00  0.00  0.72  0.00
  YS02001926YS02001923    1.00   0.11  0.00  0.00  0.17  0.00  0.72  0.00  0.00  0.00
  YS02001929YS02001926    1.00   0.11  0.00  0.00  0.89  0.00  0.00  0.00  0.76  0.00
  YS02006553YS02006556    1.00   0.11  0.00  0.00  0.89  0.00  0.00  0.00  0.00  0.00
  YS02006556YS02006558    1.00   0.11  0.00  0.00  0.89  0.00  0.00  0.00  0.00  0.00
  YS02006558YS02006561    1.00   0.12  0.00  0.00  0.16  0.73  0.00  0.00  0.14  0.00
  YS02006561YS02001783    1.00   0.12  0.00  0.00  0.27  0.61  0.00  0.00  0.62  0.00
  YS02163301YS02001633    1.00   0.11  0.00  0.00  0.89  0.00  0.00  0.00  0.00  0.00
  YS02163601YS02164001    1.00   0.11  0.00  0.00  0.89  0.00  0.00  0.00  0.00  0.00
  YS02164001YS02001641    1.00   0.11  0.00  0.00  0.89  0.00  0.00  0.00  0.00  0.00
  
  
  *************************
  Conduit Surcharge Summary
  *************************
  
  ----------------------------------------------------------------------------
                                                           Hours        Hours 
                         --------- Hours Full --------   Above Full   Capacity
  Conduit                Both Ends  Upstream  Dnstream   Normal Flow   Limited
  ----------------------------------------------------------------------------
  WS02003072WS02003073        0.01      0.01      0.01      0.30         0.01
  WS02004401WS02004402        0.01      0.01      0.01      0.01         0.01
  WS02004402WS02004403        0.01      0.01      0.01      0.02         0.01
  WS02004404WS02004405        0.01      0.01      0.01      3.65         0.01
  WS02004405WS02004406        0.01      0.01      0.01      0.08         0.01
  WS02006109WS02006110        0.15      0.15      2.59      0.17         0.01
  WS02006110WS02006113        0.01      0.01      2.59      0.01         0.01
  WS02006111WS02006112        0.01      0.01      2.72      0.01         0.01
  WS02006112WS02006115        0.01      0.01      0.11      0.01         0.01
  WS02006113WS02006111        0.01      0.01      0.01      0.01         0.01
  WS02006115WS02006116        0.01      0.01      0.01      0.01         0.01
  WS02006116WS02004401        0.01      0.01      0.01      0.01         0.01
  WS02006228WS02006109        2.55      2.59      2.56      2.96         2.55
  WS02006229WS02006228        2.55      2.57      2.55      2.72         2.53
  WS02006230WS02006229        2.61      2.68      2.63      3.93         2.61
  WS02006231WS02006230        0.15      0.15      0.22      3.54         0.01
  WS02006232WS02006231        0.19      0.19      2.60      0.25         0.01
  WS02006234WS02006232        2.52      2.52      2.60      0.22         0.26
  WS02006235WS02006234        0.47      0.48      2.55      3.41         0.02
  WS02006238WS02006235        2.57      2.57      2.60      0.01         0.01
  WS02006239WS02006238        2.59      2.60      2.59      2.58         2.41
  WS02006240WS02006239        2.49      2.51      2.51      2.58         2.36
  WS02006242WS02006240        2.50      2.50      2.55      2.72         0.01
  WS02006243WS02006242        2.51      2.51      2.52      0.01         0.05
  WS02006245WS02006243        2.50      2.50      2.51      2.46         2.31
  WS02006247WS02006245        2.50      2.51      2.50      3.33         2.50
  WS02006248WS02006247        2.50      2.50      2.50      0.01         0.07
  WS02006249WS02006248        2.50      2.50      2.50      3.30         0.01
  WS02006251WS02006249        2.49      2.50      2.50      2.66         2.40
  WS02006252WS02006251        2.69      2.69      2.90      2.69         0.01
  WS02006256WS02006235        3.42      3.46      7.43      0.39         0.03
  YS02001580YS02001583        1.26      1.26      1.34      0.01         0.01
  YS02001583YS02001586        1.27      1.27      1.57      0.01         0.01
  YS02001586YS02001590        1.58      1.58      1.76      0.01         0.01
  YS02001590YS02001593        1.77      1.77      1.80      1.81         0.01
  YS02001593YS02001596        1.79      1.79      1.89      0.01         0.01
  YS02001596YS02001600        1.92      1.92      1.96      0.01         0.01
  YS02001600YS02001601        1.99      1.99      2.13      0.01         0.01
  YS02001601YS02001602        2.08      2.08      2.15      1.97         0.01
  YS02001602YS02001605        2.06      2.06      2.08      2.65         0.01
  YS02001605YS02001607        2.04      2.06      2.04      2.08         2.03
  YS02001607YS02001610        1.79      1.79      1.82      0.01         0.01
  YS02001610YS02001613        1.79      1.79      1.82      0.01         0.01
  YS02001613YS02001616        1.73      1.73      1.79      0.01         0.01
  YS02001616YS02001619        1.71      1.71      1.73      0.01         0.01
  YS02001619YS02001622        1.71      1.71      1.71      1.59         1.36
  YS02001622YS02001625        1.71      1.71      1.88      0.01         0.01
  YS02001625YS02001629        1.58      1.58      1.88      0.01         0.01
  YS02001629YS02163301        1.88      1.88      1.89      0.08         0.16
  YS02001633YS02163601        1.90      1.90      1.93      0.25         0.43
  YS02001641YS02001644        1.87      1.88      1.87      2.17         1.86
  YS02001644YS02001647        1.65      1.65      1.87      0.04         0.01
  YS02001647YS02001649        1.65      1.65      1.80      0.01         0.01
  YS02001649YS02001757        1.78      1.80      1.84      0.31         0.29
  YS02001652YS02001649        1.55      1.55      1.80      0.01         0.01
  YS02001655YS02001652        1.08      1.08      1.50      0.01         0.01
  YS02001658YS02001655        0.15      0.15      1.08      0.01         0.01
  YS02001661YS02001658        0.01      0.01      0.15      0.01         0.01
  YS02001745YS02001748        0.01      0.01      0.02      0.01         0.01
  YS02001748YS02001751        0.13      0.13      0.63      0.01         0.01
  YS02001751YS02001754        0.63      0.63      1.35      0.01         0.01
  YS02001754YS02001757        1.43      1.43      1.84      0.01         0.01
  YS02001757CaochengTiaoxuchi        1.71      1.84      2.26      0.69         0.50
  YS02001759YS02001757        1.77      1.77      1.84      0.01         0.01
  YS02001762YS02001759        1.74      1.74      1.77      0.01         0.02
  YS02001765YS02001762        1.71      1.71      1.74      0.01         0.01
  YS02001767YS02001765        1.66      1.66      1.71      0.01         0.02
  YS02001770YS02001767        1.66      1.66      1.66      1.10         0.98
  YS02001774YS02001770        1.61      1.61      1.73      0.01         0.01
  YS02001779YS02001774        1.31      1.31      1.73      0.01         0.01
  YS02001783YS02001784        1.01      1.05      1.01      1.31         1.01
  YS02001784YS02001785        0.82      1.01      0.82      1.85         0.82
  YS02001786YS02001788        0.01      0.82      0.01      1.48         0.01
  YS02001790YS02001791        0.01      0.01      0.01      0.99         0.01
  YS02001793JiankangQianchi        0.01      0.01      6.70      0.01         0.01
  YS02001882YS02001884        0.96      0.96      0.98      0.01         0.01
  YS02001884YS02001887        1.02      1.02      1.04      0.01         0.01
  YS02001887YS02001890        1.05      1.05      1.07      0.01         0.01
  YS02001890YS02001895        0.94      0.94      1.10      0.01         0.01
  YS02001895YS02001898        0.92      0.92      0.94      0.01         0.01
  YS02001898YS02001901        0.94      0.94      1.01      0.01         0.01
  YS02001901YS02001904        1.00      1.00      1.01      0.01         0.01
  YS02001904YS02001907        1.00      1.00      1.44      0.01         0.01
  YS02001907YS02006553        1.87      1.87      1.90      0.01         0.01
  YS02001910YS02001907        1.10      1.10      1.40      0.01         0.01
  YS02001915YS02001910        0.96      0.96      1.10      0.01         0.01
  YS02001918YS02001915        0.79      0.79      0.96      0.01         0.01
  YS02001920YS02001918        0.79      0.79      0.82      0.01         0.01
  YS02001923YS02001920        0.72      0.72      0.82      0.01         0.01
  YS02001926YS02001923        0.01      0.01      0.01      0.01         0.01
  YS02001929YS02001926        0.01      0.01      0.01      0.01         0.01
  YS02006553YS02006556        1.27      1.27      1.44      0.01         0.01
  YS02006556YS02006558        1.34      1.34      1.48      0.01         0.01
  YS02006558YS02006561        0.86      1.25      0.86      1.73         0.86
  YS02006561YS02001783        0.74      0.74      1.05      0.01         0.01
  YS02163301YS02001633        1.89      1.89      1.91      0.01         0.01
  YS02163601YS02164001        1.88      1.88      1.93      0.10         0.01
  YS02164001YS02001641        1.88      1.88      1.88      1.58         1.48
  
  
  ***************
  Pumping Summary
  ***************
  
  ---------------------------------------------------------------------------------------------------------
                                                  Min       Avg       Max     Total     Power    % Time Off
                        Percent   Number of      Flow      Flow      Flow    Volume     Usage    Pump Curve
  Pump                 Utilized   Start-Ups       LPS       LPS       LPS  10^6 ltr     Kw-hr    Low   High
  ---------------------------------------------------------------------------------------------------------
  CC-R1                   33.39          14      0.00    683.00    683.00     6.567    124.48    0.0   18.9
  CC-R2                   29.68          13      0.00    683.00    683.00     5.838    111.05    0.0   19.6
  CC-S1                   35.11          10      0.00    200.00    200.00     2.022     10.36    0.0    0.0
  CC-S2                   44.03         197      0.00    200.00    200.00     2.536     13.99    0.0    0.0
  JK-R1                   12.17         210      0.00   1000.00   1000.00     3.505     21.26    0.0    0.0
  JK-R2                    9.06         203      0.00   1000.00   1000.00     2.610     15.78    0.0    0.0
  JK-S                     5.07          35      0.00    300.00    300.00     0.438      8.49    0.0    0.0
  

  Analysis begun on:  Thu Sep  7 18:11:21 2023
  Analysis ended on:  Thu Sep  7 18:11:59 2023
  Total elapsed time: 00:00:38