
  OWA STORM WATER MANAGEMENT MODEL - VERSION v5.1.14 (OWA 2022-07-31)
  --------------------------------------------------------------

  WARNING 04: minimum elevation drop used for Conduit WS02004404WS02004405
  WARNING 03: negative offset ignored for Link YS02001904YS02001907
  
  *********************************************************
  NOTE: The summary statistics displayed in this report are
  based on results found at every computational time step,  
  not just on results from each reporting time step.
  *********************************************************
  
  ****************
  Analysis Options
  ****************
  Flow Units ............... LPS
  Process Models:
    Rainfall/Runoff ........ YES
    RDII ................... NO
    Snowmelt ............... NO
    Groundwater ............ NO
    Flow Routing ........... YES
    Ponding Allowed ........ NO
    Water Quality .......... NO
  Infiltration Method ...... HORTON
  Flow Routing Method ...... DYNWAVE
  Surcharge Method ......... EXTRAN
  Starting Date ............ 08/28/2015 08:00:00
  Ending Date .............. 08/28/2015 16:00:00
  Antecedent Dry Days ...... 8.0
  Report Time Step ......... 00:01:00
  Wet Time Step ............ 00:01:00
  Dry Time Step ............ 00:01:00
  Routing Time Step ........ 30.00 sec
  Variable Time Step ....... YES
  Maximum Trials ........... 8
  Number of Threads ........ 4
  Head Tolerance ........... 0.001500 m
  
  
  **************************        Volume         Depth
  Runoff Quantity Continuity     hectare-m            mm
  **************************     ---------       -------
  Total Precipitation ......         2.644        79.703
  Evaporation Loss .........         0.000         0.000
  Infiltration Loss ........         0.107         3.211
  Surface Runoff ...........         2.504        75.504
  Final Storage ............         0.033         0.998
  Continuity Error (%) .....        -0.013
  
  
  **************************        Volume        Volume
  Flow Routing Continuity        hectare-m      10^6 ltr
  **************************     ---------     ---------
  Dry Weather Inflow .......         0.025         0.251
  Wet Weather Inflow .......         2.504        25.038
  Groundwater Inflow .......         0.000         0.000
  RDII Inflow ..............         0.000         0.000
  External Inflow ..........         0.083         0.834
  External Outflow .........         2.466        24.657
  Flooding Loss ............         0.244         2.436
  Evaporation Loss .........         0.000         0.000
  Exfiltration Loss ........         0.000         0.000
  Initial Stored Volume ....         0.243         2.431
  Final Stored Volume ......         0.180         1.805
  Continuity Error (%) .....        -1.206
  
  
  *************************
  Highest Continuity Errors
  *************************
  Node WS02006256 (-6.79%)
  Node YS02001884 (4.70%)
  Node YS02001583 (-4.39%)
  Node YS02001774 (1.05%)
  
  
  ***************************
  Time-Step Critical Elements
  ***************************
  Link WS02006252WS02006251 (29.96%)
  Link WS02006238WS02006235 (15.67%)
  Link YS02001791YS02001793 (15.00%)
  Link WS02004404WS02004405 (8.78%)
  Link YS02006556YS02006558 (7.13%)
  
  
  ********************************
  Highest Flow Instability Indexes
  ********************************
  Link WS02006113WS02006111 (44)
  Link WS02006252WS02006251 (36)
  Link WS02006256WS02006235 (30)
  Link WS02006238WS02006235 (30)
  Link WS02006111WS02006112 (26)
  
  
  *************************
  Routing Time Step Summary
  *************************
  Minimum Time Step           :     0.00 sec
  Average Time Step           :     2.33 sec
  Maximum Time Step           :    30.00 sec
  Percent in Steady State     :    -0.00
  Average Iterations per Step :     4.42
  Percent Not Converging      :    28.07
  
  
  ***************************
  Subcatchment Runoff Summary
  ***************************
  
  ------------------------------------------------------------------------------------------------------------------------------
                            Total      Total      Total      Total     Imperv       Perv      Total       Total     Peak  Runoff
                           Precip      Runon       Evap      Infil     Runoff     Runoff     Runoff      Runoff   Runoff   Coeff
  Subcatchment                 mm         mm         mm         mm         mm         mm         mm    10^6 ltr      LPS
  ------------------------------------------------------------------------------------------------------------------------------
  sub60                     79.70       0.00       0.00       1.94      68.93       7.63      76.56        1.01   202.22   0.961
  sub61                     79.70       0.00       0.00       2.81      65.02      10.74      75.76        1.39   278.61   0.951
  sub62                     79.70       0.00       0.00       1.29      72.04       5.09      77.12        2.11   417.19   0.968
  sub63                     79.70       0.00       0.00       5.19      55.62      17.92      73.54        1.67   319.09   0.923
  sub64                     79.70       0.00       0.00       2.63      66.54       9.33      75.86        1.82   349.54   0.952
  sub65                     79.70       0.00       0.00       2.27      68.08       8.09      76.17        2.10   398.13   0.956
  sub66                     79.70       0.00       0.00       6.33      55.50      16.79      72.29        3.37   554.56   0.907
  sub67                     79.70       0.00       0.00       1.23      72.08       5.15      77.23        1.44   290.77   0.969
  sub68                     79.70       0.00       0.00       2.33      67.35       8.83      76.18        2.10   416.54   0.956
  sub69                     79.70       0.00       0.00       2.12      67.63       9.84      77.47        2.87   538.35   0.972
  sub70                     79.70       0.00       0.00       6.84      52.43      20.26      72.69        2.10   329.08   0.912
  sub71                     79.70       0.00       0.00       1.33      71.99       5.05      77.04        2.01   385.56   0.967
  sub72                     79.70       0.00       0.00       1.18      72.71       4.40      77.11        1.06   194.25   0.967
  
  
  ******************
  Node Depth Summary
  ******************
  
  ---------------------------------------------------------------------------------
                                 Average  Maximum  Maximum  Time of Max    Reported
                                   Depth    Depth      HGL   Occurrence   Max Depth
  Node                 Type       Meters   Meters   Meters  days hr:min      Meters
  ---------------------------------------------------------------------------------
  WS02003060           JUNCTION     0.22     0.38     5.31     0  01:49        0.38
  WS02003066           JUNCTION     0.18     0.29     5.85     0  01:49        0.29
  WS02003067           JUNCTION     0.48     0.70     6.02     0  01:49        0.70
  WS02003069           JUNCTION     0.24     0.42     5.01     0  01:50        0.42
  WS02003072           JUNCTION     0.30     0.49     4.87     0  01:50        0.49
  WS02003073           JUNCTION     0.17     0.29     4.36     0  01:51        0.29
  WS02004401           JUNCTION     0.58     0.85     6.85     0  01:46        0.85
  WS02004402           JUNCTION     0.62     0.87     6.83     0  01:46        0.87
  WS02004403           JUNCTION     0.64     0.89     6.82     0  01:46        0.89
  WS02004404           JUNCTION     0.72     0.96     6.81     0  01:47        0.96
  WS02004405           JUNCTION     0.72     0.95     6.80     0  01:47        0.95
  WS02004406           JUNCTION     0.73     0.95     6.78     0  01:47        0.95
  WS02004407           JUNCTION     0.17     0.29     6.61     0  01:47        0.29
  WS02004409           JUNCTION     0.38     0.66     6.43     0  01:47        0.66
  WS02004410           JUNCTION     0.40     0.67     6.39     0  01:48        0.67
  WS02004411           JUNCTION     0.42     0.68     6.36     0  01:48        0.68
  WS02004412           JUNCTION     0.44     0.69     6.33     0  01:48        0.69
  WS02004413           JUNCTION     0.61     0.85     6.32     0  01:48        0.85
  WS02006109           JUNCTION     0.64     1.19     7.81     0  03:04        0.99
  WS02006110           JUNCTION     0.65     1.24     7.82     0  03:04        0.95
  WS02006111           JUNCTION     0.17     0.90     7.60     0  00:00        0.40
  WS02006112           JUNCTION     0.74     2.68     8.56     0  00:00        1.14
  WS02006113           JUNCTION     0.27     1.40     8.29     0  00:00        0.45
  WS02006115           JUNCTION     0.47     1.65     7.79     0  00:00        0.86
  WS02006116           JUNCTION     0.55     1.06     7.10     0  00:00        0.83
  WS02006228           JUNCTION     0.63     1.41     8.06     0  03:04        1.02
  WS02006229           JUNCTION     0.60     1.48     8.17     0  03:04        1.04
  WS02006230           JUNCTION     0.60     1.65     8.39     0  03:04        1.20
  WS02006231           JUNCTION     0.40     1.53     8.65     0  03:03        0.94
  WS02006232           JUNCTION     0.53     1.53     8.57     0  03:04        1.12
  WS02006234           JUNCTION     0.46     1.48     8.64     0  03:04        1.11
  WS02006235           JUNCTION     0.49     1.52     8.69     0  03:04        1.18
  WS02006238           JUNCTION     0.52     1.55     8.70     0  03:04        1.22
  WS02006239           JUNCTION     0.49     1.50     8.71     0  03:04        1.19
  WS02006240           JUNCTION     0.47     1.42     8.71     0  03:04        1.15
  WS02006242           JUNCTION     0.54     1.44     8.71     0  03:04        1.23
  WS02006243           JUNCTION     0.46     1.29     8.71     0  03:04        1.15
  WS02006245           JUNCTION     0.46     1.28     8.77     0  01:35        1.13
  WS02006247           JUNCTION     0.49     1.21     8.71     0  03:03        1.14
  WS02006248           JUNCTION     0.45     1.10     8.69     0  03:03        1.09
  WS02006249           JUNCTION     0.48     1.09     8.69     0  01:36        1.09
  WS02006251           JUNCTION     0.48     1.37     9.04     0  01:36        1.13
  WS02006252           JUNCTION     0.34     1.50     9.74     0  01:29        0.68
  WS02006256           JUNCTION     0.83     2.35     9.28     0  00:10        2.35
  WSF200               JUNCTION     0.15     0.29     5.52     0  01:49        0.29
  YS02001580           JUNCTION     0.25     1.05     9.59     0  01:16        0.80
  YS02001583           JUNCTION     0.29     1.14     9.64     0  01:16        0.82
  YS02001586           JUNCTION     0.43     1.13     9.30     0  01:16        1.13
  YS02001590           JUNCTION     0.57     1.40     9.26     0  01:35        1.40
  YS02001593           JUNCTION     0.51     1.31     9.18     0  01:16        1.29
  YS02001596           JUNCTION     0.67     1.68     9.10     0  01:16        1.66
  YS02001600           JUNCTION     0.78     1.87     9.00     0  01:16        1.87
  YS02001601           JUNCTION     0.97     2.06     8.90     0  01:16        2.06
  YS02001602           JUNCTION     0.86     1.87     8.77     0  01:16        1.87
  YS02001605           JUNCTION     0.79     1.78     8.68     0  01:16        1.78
  YS02001607           JUNCTION     0.73     1.68     8.53     0  01:16        1.66
  YS02001610           JUNCTION     0.77     1.68     8.48     0  01:16        1.68
  YS02001613           JUNCTION     0.73     1.69     8.53     0  02:51        1.69
  YS02001616           JUNCTION     0.67     1.61     8.52     0  01:16        1.61
  YS02001619           JUNCTION     0.65     1.61     8.54     0  01:16        1.61
  YS02001622           JUNCTION     0.64     1.62     8.52     0  01:16        1.60
  YS02001625           JUNCTION     0.88     1.78     8.38     0  01:25        1.78
  YS02001629           JUNCTION     0.79     1.85     8.40     0  01:16        1.85
  YS02001633           JUNCTION     0.85     1.99     8.44     0  02:58        1.90
  YS02001641           JUNCTION     0.77     1.92     8.35     0  01:43        1.87
  YS02001644           JUNCTION     0.75     1.92     8.35     0  01:43        1.92
  YS02001647           JUNCTION     0.53     1.87     8.48     0  01:43        1.87
  YS02001649           JUNCTION     0.59     2.05     8.44     0  01:43        2.05
  YS02001652           JUNCTION     0.46     2.04     8.64     0  02:17        2.01
  YS02001655           JUNCTION     0.35     2.20     9.05     0  02:17        1.56
  YS02001658           JUNCTION     0.23     0.88     8.03     0  02:15        0.80
  YS02001661           JUNCTION     0.18     0.56     7.97     0  02:16        0.56
  YS02001664           JUNCTION     0.08     0.21     8.14     0  01:27        0.21
  YS02001745           JUNCTION     0.08     0.34     7.86     0  02:16        0.28
  YS02001748           JUNCTION     0.21     0.73     7.81     0  02:15        0.73
  YS02001751           JUNCTION     0.29     0.95     7.83     0  02:15        0.92
  YS02001754           JUNCTION     0.41     1.25     7.86     0  02:17        1.17
  YS02001757           JUNCTION     0.61     1.74     8.00     0  01:43        1.74
  YS02001759           JUNCTION     0.54     1.56     7.93     0  01:43        1.56
  YS02001762           JUNCTION     0.53     1.61     8.01     0  02:51        1.52
  YS02001765           JUNCTION     0.50     1.64     8.09     0  02:51        1.53
  YS02001767           JUNCTION     0.49     1.70     8.19     0  02:51        1.57
  YS02001770           JUNCTION     0.50     1.83     8.32     0  02:51        1.68
  YS02001774           JUNCTION     0.56     1.92     8.34     0  02:42        1.83
  YS02001779           JUNCTION     0.38     1.68     8.37     0  02:42        1.68
  YS02001783           JUNCTION     0.40     1.21     7.35     0  01:25        1.21
  YS02001784           JUNCTION     0.40     1.11     7.17     0  01:26        1.10
  YS02001786           JUNCTION     0.33     0.87     6.90     0  01:25        0.86
  YS02001788           JUNCTION     0.25     0.61     6.59     0  01:33        0.61
  YS02001790           JUNCTION     0.29     0.72     6.36     0  01:30        0.71
  YS02001791           JUNCTION     0.18     0.43     5.90     0  01:28        0.42
  YS02001793           JUNCTION     0.09     0.21     5.04     0  01:43        0.21
  YS02001882           JUNCTION     0.48     1.58     8.30     0  01:25        1.58
  YS02001884           JUNCTION     0.56     1.68     8.30     0  01:24        1.66
  YS02001887           JUNCTION     0.64     1.76     8.29     0  01:25        1.75
  YS02001890           JUNCTION     0.66     1.78     8.29     0  01:25        1.77
  YS02001895           JUNCTION     0.45     1.54     8.29     0  01:30        1.54
  YS02001898           JUNCTION     0.46     1.55     8.29     0  01:30        1.55
  YS02001901           JUNCTION     0.56     1.68     8.29     0  01:35        1.68
  YS02001904           JUNCTION     0.54     1.63     8.26     0  01:26        1.62
  YS02001907           JUNCTION     0.85     1.96     8.25     0  01:25        1.96
  YS02001910           JUNCTION     0.66     1.79     8.30     0  01:26        1.79
  YS02001915           JUNCTION     0.48     1.61     8.33     0  01:25        1.59
  YS02001918           JUNCTION     0.29     1.29     8.36     0  01:25        1.29
  YS02001920           JUNCTION     0.36     1.37     8.38     0  01:26        1.35
  YS02001923           JUNCTION     0.21     1.12     8.38     0  01:25        1.12
  YS02001926           JUNCTION     0.22     0.94     8.38     0  01:26        0.94
  YS02001929           JUNCTION     0.13     0.70     8.39     0  01:26        0.69
  YS02006553           JUNCTION     0.85     1.96     8.24     0  01:26        1.95
  YS02006556           JUNCTION     0.82     1.90     8.21     0  01:25        1.90
  YS02006558           JUNCTION     0.86     1.95     8.22     0  01:35        1.95
  YS02006561           JUNCTION     0.24     0.88     7.54     0  01:25        0.85
  YS02163301           JUNCTION     0.80     1.92     8.44     0  02:53        1.88
  YS02163601           JUNCTION     0.85     2.01     8.40     0  02:58        1.90
  YS02164001           JUNCTION     0.77     1.92     8.38     0  02:17        1.82
  CC-1                 OUTFALL      0.00     0.00     0.00     0  00:00        0.00
  CC-2                 OUTFALL      0.00     0.00     0.00     0  00:00        0.00
  JK-1                 OUTFALL      0.00     0.00     0.00     0  00:00        0.00
  JK-2                 OUTFALL      0.00     0.00     0.00     0  00:00        0.00
  WSC                  OUTFALL      0.17     0.29     0.96     0  01:51        0.29
  CC-storage           STORAGE      0.97     1.73     7.23     0  02:59        1.73
  JK-storage           STORAGE      1.24     3.00     3.80     0  00:00        2.76
  
  
  *******************
  Node Inflow Summary
  *******************
  
  -------------------------------------------------------------------------------------------------
                                  Maximum  Maximum                  Lateral       Total        Flow
                                  Lateral    Total  Time of Max      Inflow      Inflow     Balance
                                   Inflow   Inflow   Occurrence      Volume      Volume       Error
  Node                 Type           LPS      LPS  days hr:min    10^6 ltr    10^6 ltr     Percent
  -------------------------------------------------------------------------------------------------
  WS02003060           JUNCTION     16.53   543.19     0  01:49       0.476        5.09       0.045
  WS02003066           JUNCTION      0.00   525.99     0  01:49           0        4.62       0.029
  WS02003067           JUNCTION      0.00   525.73     0  01:49           0        4.62       0.089
  WS02003069           JUNCTION      0.32   543.42     0  01:49     0.00922         5.1       0.075
  WS02003072           JUNCTION      0.00   542.47     0  01:50           0         5.1       0.135
  WS02003073           JUNCTION      1.82   543.55     0  01:51      0.0524        5.14       0.109
  WS02004401           JUNCTION      0.00  1677.78     0  00:00           0        4.73       0.239
  WS02004402           JUNCTION      0.00  1171.33     0  00:01           0        4.72       0.232
  WS02004403           JUNCTION      0.00   907.51     0  00:01           0        4.71       0.229
  WS02004404           JUNCTION      0.16   854.53     0  00:01     0.00467         4.7       0.192
  WS02004405           JUNCTION      0.04   797.23     0  00:01      0.0011        4.69       0.260
  WS02004406           JUNCTION      0.00   655.67     0  00:02           0        4.68       0.462
  WS02004407           JUNCTION      0.00   533.32     0  01:47           0        4.66       0.021
  WS02004409           JUNCTION      0.00   533.14     0  01:47           0        4.66       0.054
  WS02004410           JUNCTION      0.00   530.76     0  01:47           0        4.65       0.095
  WS02004411           JUNCTION      0.00   528.77     0  01:48           0        4.65       0.119
  WS02004412           JUNCTION      0.00   527.27     0  01:48           0        4.64       0.156
  WS02004413           JUNCTION      0.00   526.19     0  01:48           0        4.64       0.286
  WS02006109           JUNCTION      1.23  1308.01     0  00:00      0.0354        4.66       0.138
  WS02006110           JUNCTION      0.00   562.83     0  03:04           0        4.63      -0.790
  WS02006111           JUNCTION      0.00  1176.04     0  00:00           0        4.66      -0.823
  WS02006112           JUNCTION      0.00  2307.30     0  00:00           0         4.7      -0.021
  WS02006113           JUNCTION      0.00   567.76     0  03:04           0        4.62      -1.077
  WS02006115           JUNCTION      0.00   899.27     0  00:00           0        4.67      -0.693
  WS02006116           JUNCTION      0.00  1098.16     0  00:01           0        4.71      -0.489
  WS02006228           JUNCTION      0.00   561.42     0  03:04           0         4.6       0.094
  WS02006229           JUNCTION      0.00   560.65     0  03:04           0        4.59       0.185
  WS02006230           JUNCTION     10.28   583.07     0  03:03       0.296        4.57       0.046
  WS02006231           JUNCTION      0.00   576.01     0  03:03           0        4.26      -0.084
  WS02006232           JUNCTION      0.00   575.11     0  03:03           0        4.27       0.216
  WS02006234           JUNCTION      0.00   569.86     0  03:03           0        4.26      -0.289
  WS02006235           JUNCTION      0.00   562.42     0  03:03           0        4.35       0.388
  WS02006238           JUNCTION      0.00   421.92     0  01:46           0        3.99      -0.141
  WS02006239           JUNCTION      0.00   421.88     0  03:08           0        3.93      -0.122
  WS02006240           JUNCTION      0.00   419.34     0  01:46           0        3.91      -0.009
  WS02006242           JUNCTION      0.00   419.40     0  01:46           0        3.91       0.089
  WS02006243           JUNCTION      0.00   418.69     0  01:46           0        3.91       0.025
  WS02006245           JUNCTION      0.00   418.47     0  01:46           0        3.92       0.244
  WS02006247           JUNCTION      0.00   417.76     0  01:46           0        3.92      -0.009
  WS02006248           JUNCTION      0.00   417.84     0  03:09           0        3.93       0.028
  WS02006249           JUNCTION      0.00   766.28     0  00:00           0        3.99       0.174
  WS02006251           JUNCTION      0.08   453.22     0  00:00     0.00222        3.98      -0.331
  WS02006252           JUNCTION      0.00   400.00     0  00:00           0        3.94      -0.859
  WS02006256           JUNCTION      0.00   300.00     0  00:10           0       0.481      -6.359
  WSF200               JUNCTION      0.00   526.12     0  01:49           0        4.62       0.010
  YS02001580           JUNCTION      0.00    77.01     0  01:16           0     0.00452       2.247
  YS02001583           JUNCTION      0.00   121.24     0  01:16           0      0.0161      -4.208
  YS02001586           JUNCTION    329.08   329.27     0  01:44         2.1        2.11       0.066
  YS02001590           JUNCTION      0.00   318.59     0  01:30           0        2.09      -0.032
  YS02001593           JUNCTION      0.00   318.10     0  01:30           0        2.09       0.006
  YS02001596           JUNCTION      0.00   317.99     0  01:38           0        2.09      -0.008
  YS02001600           JUNCTION      0.00   318.01     0  01:30           0        2.09       0.010
  YS02001601           JUNCTION    538.35   854.53     0  01:28        2.87        4.96       0.005
  YS02001602           JUNCTION      0.00   538.93     0  01:15           0        3.34       0.014
  YS02001605           JUNCTION      0.00   539.19     0  01:15           0        3.11       0.014
  YS02001607           JUNCTION      0.00   539.43     0  01:15           0        3.11       0.054
  YS02001610           JUNCTION      0.00   549.24     0  01:16           0        3.11       0.072
  YS02001613           JUNCTION      0.00   555.23     0  01:16           0        2.91       0.057
  YS02001616           JUNCTION      0.00   561.05     0  01:16           0        2.91       0.007
  YS02001619           JUNCTION    554.56   913.10     0  01:24        3.37        6.28      -0.009
  YS02001622           JUNCTION      0.00   912.93     0  01:24           0        6.27      -0.004
  YS02001625           JUNCTION      0.00   915.64     0  01:16           0        6.27       0.183
  YS02001629           JUNCTION      0.00   915.50     0  01:16           0        6.18      -0.009
  YS02001633           JUNCTION    398.33  1300.36     0  01:24         2.1        8.29       0.040
  YS02001641           JUNCTION      0.00  1300.23     0  01:24           0        8.29       0.037
  YS02001644           JUNCTION    349.58  1644.66     0  01:25        1.82        10.1       0.032
  YS02001647           JUNCTION      0.00  1644.73     0  01:25           0        10.1      -0.004
  YS02001649           JUNCTION      0.00  1964.02     0  01:23           0        11.8       0.024
  YS02001652           JUNCTION      0.00   455.26     0  01:28           0        1.69      -0.016
  YS02001655           JUNCTION      0.15   537.90     0  01:36     0.00443        1.67      -0.858
  YS02001658           JUNCTION      0.00   538.52     0  02:16           0        1.68       0.036
  YS02001661           JUNCTION      0.00   348.53     0  02:17           0        1.69       0.117
  YS02001664           JUNCTION    319.09   319.09     0  01:27        1.67        1.67      -0.010
  YS02001745           JUNCTION    202.22   202.22     0  01:26        1.01        1.01       0.176
  YS02001748           JUNCTION      0.04   292.33     0  02:16      0.0013        1.01      -0.220
  YS02001751           JUNCTION      0.01   249.21     0  01:34    0.000317        1.01       0.112
  YS02001754           JUNCTION      0.26   262.58     0  01:22     0.00749        1.01      -0.277
  YS02001757           JUNCTION      0.00  2824.49     0  01:23           0        16.3       0.033
  YS02001759           JUNCTION    278.65   690.88     0  01:27        1.39        3.53      -0.022
  YS02001762           JUNCTION      0.00   421.14     0  01:27           0        2.13      -0.003
  YS02001765           JUNCTION      0.00   441.24     0  01:28           0        2.13       0.004
  YS02001767           JUNCTION      0.54   465.92     0  01:28      0.0154        2.13       0.007
  YS02001770           JUNCTION    417.34   457.80     0  01:26        2.12        2.18      -0.042
  YS02001774           JUNCTION      0.00   100.97     0  01:25           0       0.102       1.063
  YS02001779           JUNCTION      0.01    97.25     0  01:26    0.000144      0.0386      -2.104
  YS02001783           JUNCTION      0.00  1141.32     0  01:26           0         6.6       0.005
  YS02001784           JUNCTION      1.06  1142.63     0  01:26      0.0305        6.63       0.008
  YS02001786           JUNCTION      0.06  1142.47     0  01:27     0.00162        6.63       0.010
  YS02001788           JUNCTION      0.07  1144.51     0  01:25     0.00204        6.63       0.006
  YS02001790           JUNCTION      0.15  1156.05     0  01:26     0.00446        6.63       0.017
  YS02001791           JUNCTION      0.00  1269.62     0  01:30           0        6.63      -0.018
  YS02001793           JUNCTION      0.00  1216.57     0  01:43           0        6.63       0.004
  YS02001882           JUNCTION      0.00    48.37     0  01:12           0      0.0153       5.197
  YS02001884           JUNCTION      0.00    98.34     0  01:12           0      0.0528       4.927
  YS02001887           JUNCTION    291.22   293.63     0  01:20        1.45        1.48       0.272
  YS02001890           JUNCTION      0.00   294.51     0  01:20           0        1.44       0.365
  YS02001895           JUNCTION      0.00   295.59     0  01:24           0        1.44       0.191
  YS02001898           JUNCTION      0.00   296.56     0  01:24           0        1.43      -0.025
  YS02001901           JUNCTION      0.00   297.93     0  01:24           0        1.44       0.246
  YS02001904           JUNCTION      0.00   298.61     0  01:24           0        1.45       0.181
  YS02001907           JUNCTION      0.00   958.10     0  01:26           0        4.61       0.388
  YS02001910           JUNCTION      0.00   669.21     0  01:26           0        3.16       0.226
  YS02001915           JUNCTION    385.58   669.12     0  01:26        2.01        3.16       0.048
  YS02001918           JUNCTION      0.00   283.44     0  01:26           0        1.15       0.026
  YS02001920           JUNCTION      2.87   283.46     0  01:26      0.0827        1.15       0.091
  YS02001923           JUNCTION      0.04   254.29     0  01:27     0.00109        1.06      -0.008
  YS02001926           JUNCTION      0.05   231.61     0  01:26      0.0015        1.06       0.041
  YS02001929           JUNCTION    194.25   194.25     0  01:29        1.06        1.06      -0.007
  YS02006553           JUNCTION      0.00   778.45     0  01:45           0        4.55       0.263
  YS02006556           JUNCTION      0.00   778.33     0  01:45           0        4.56       0.170
  YS02006558           JUNCTION    417.42  1142.17     0  01:25        2.12        6.64       0.044
  YS02006561           JUNCTION      0.00  1142.05     0  01:25           0         6.6       0.006
  YS02163301           JUNCTION      0.00   912.35     0  01:24           0        6.19       0.025
  YS02163601           JUNCTION      0.11  1300.36     0  01:24     0.00317        8.28       0.060
  YS02164001           JUNCTION      0.00  1300.33     0  01:24           0        8.28       0.034
  CC-1                 OUTFALL       0.00   683.00     0  01:10           0        5.33       0.000
  CC-2                 OUTFALL       0.00   683.00     0  00:10           0        7.91       0.000
  JK-1                 OUTFALL       0.00  1000.00     0  00:00           0           2       0.000
  JK-2                 OUTFALL       0.00  1000.00     0  00:00           0        4.28       0.000
  WSC                  OUTFALL       0.00   542.30     0  01:51           0        5.14       0.000
  CC-storage           STORAGE       0.00  2712.00     0  01:29           0        18.5      -0.177
  JK-storage           STORAGE       0.00  1216.18     0  01:43           0        6.78      -0.257
  
  
  **********************
  Node Surcharge Summary
  **********************
  
  Surcharging occurs when water rises above the top of the highest conduit.
  ---------------------------------------------------------------------
                                               Max. Height   Min. Depth
                                   Hours       Above Crown    Below Rim
  Node                 Type      Surcharged         Meters       Meters
  ---------------------------------------------------------------------
  WS02006109           JUNCTION        2.14          0.371        1.449
  WS02006110           JUNCTION        0.21          0.327        1.523
  WS02006111           JUNCTION        0.01          0.087        1.783
  WS02006112           JUNCTION        0.18          1.680        0.000
  WS02006113           JUNCTION        0.01          0.600        1.330
  WS02006115           JUNCTION        0.01          0.642        1.608
  WS02006116           JUNCTION        0.01          0.000        2.290
  WS02006228           JUNCTION        2.13          0.577        1.623
  WS02006229           JUNCTION        2.14          0.677        1.773
  WS02006230           JUNCTION        0.21          0.570        1.000
  WS02006231           JUNCTION        0.23          0.819        0.711
  WS02006232           JUNCTION        2.17          0.835        0.645
  WS02006234           JUNCTION        0.30          0.759        0.481
  WS02006235           JUNCTION        2.13          0.813        0.477
  WS02006238           JUNCTION        2.14          0.833        0.597
  WS02006239           JUNCTION        2.13          0.760        0.530
  WS02006240           JUNCTION        2.13          0.709        0.681
  WS02006242           JUNCTION        2.15          0.708        0.112
  WS02006243           JUNCTION        2.12          0.578        0.192
  WS02006245           JUNCTION        2.12          0.574        0.276
  WS02006247           JUNCTION        2.12          0.500        0.260
  WS02006248           JUNCTION        2.12          0.380        0.000
  WS02006249           JUNCTION        2.11          0.390        0.000
  WS02006251           JUNCTION        0.25          0.337        0.843
  WS02006252           JUNCTION        2.48          1.100        0.000
  WS02006256           JUNCTION        6.40          2.050        0.000
  YS02001580           JUNCTION        1.16          0.450        0.000
  YS02001583           JUNCTION        1.19          0.500        0.000
  YS02001586           JUNCTION        1.80          0.510        0.000
  YS02001590           JUNCTION        1.86          0.750        0.000
  YS02001593           JUNCTION        1.85          0.694        0.146
  YS02001596           JUNCTION        1.94          0.948        0.122
  YS02001600           JUNCTION        2.01          1.190        0.000
  YS02001601           JUNCTION        2.18          1.440        0.000
  YS02001602           JUNCTION        2.13          1.270        0.000
  YS02001605           JUNCTION        2.10          1.180        0.000
  YS02001607           JUNCTION        1.83          0.680        0.000
  YS02001610           JUNCTION        1.85          0.680        0.000
  YS02001613           JUNCTION        1.83          0.686        0.014
  YS02001616           JUNCTION        1.80          0.610        0.000
  YS02001619           JUNCTION        1.79          0.610        0.000
  YS02001622           JUNCTION        1.79          0.620        0.000
  YS02001625           JUNCTION        1.92          0.780        0.000
  YS02001629           JUNCTION        1.76          0.470        0.000
  YS02001633           JUNCTION        1.94          0.969        0.091
  YS02001641           JUNCTION        1.91          0.916        0.184
  YS02001644           JUNCTION        1.88          0.920        0.000
  YS02001647           JUNCTION        1.63          0.871        0.029
  YS02001649           JUNCTION        1.73          1.050        0.000
  YS02001652           JUNCTION        1.54          1.012        0.118
  YS02001655           JUNCTION        0.30          1.200        0.000
  YS02001754           JUNCTION        1.24          0.200        0.950
  YS02001757           JUNCTION        1.78          0.737        0.473
  YS02001759           JUNCTION        1.68          0.563        0.647
  YS02001762           JUNCTION        1.66          0.612        0.538
  YS02001765           JUNCTION        1.61          0.642        0.458
  YS02001767           JUNCTION        1.58          0.697        0.333
  YS02001770           JUNCTION        1.55          0.796        0.124
  YS02001774           JUNCTION        1.65          0.922        0.128
  YS02001779           JUNCTION        0.85          0.680        0.000
  YS02001783           JUNCTION        1.04          0.413        1.187
  YS02001784           JUNCTION        0.97          0.306        1.184
  YS02001786           JUNCTION        0.49          0.067        1.363
  YS02001882           JUNCTION        0.67          0.585        0.245
  YS02001884           JUNCTION        0.73          0.620        0.250
  YS02001887           JUNCTION        1.01          0.707        0.243
  YS02001890           JUNCTION        1.05          0.731        0.029
  YS02001895           JUNCTION        0.63          0.543        0.207
  YS02001898           JUNCTION        0.61          0.522        0.218
  YS02001901           JUNCTION        0.94          0.677        0.193
  YS02001904           JUNCTION        0.81          0.629        0.221
  YS02001907           JUNCTION        1.81          0.950        0.000
  YS02001910           JUNCTION        1.10          0.790        0.310
  YS02001915           JUNCTION        0.68          0.610        0.390
  YS02001918           JUNCTION        0.45          0.293        0.517
  YS02001920           JUNCTION        0.48          0.371        0.769
  YS02006553           JUNCTION        1.83          0.960        0.230
  YS02006556           JUNCTION        1.30          0.862        0.488
  YS02006558           JUNCTION        1.28          0.852        0.548
  YS02006561           JUNCTION        0.39          0.078        1.072
  YS02163301           JUNCTION        1.92          0.923        0.107
  YS02163601           JUNCTION        1.96          1.006        0.074
  YS02164001           JUNCTION        1.91          0.921        0.179
  
  
  *********************
  Node Flooding Summary
  *********************
  
  Flooding refers to all water that overflows a node, whether it ponds or not.
  --------------------------------------------------------------------------
                                                             Total   Maximum
                                 Maximum   Time of Max       Flood    Ponded
                        Hours       Rate    Occurrence      Volume     Depth
  Node                 Flooded       LPS   days hr:min    10^6 ltr    Meters
  --------------------------------------------------------------------------
  WS02006112              0.01   1547.89      0  00:00       0.047     0.000
  WS02006248              0.01     12.89      0  03:03       0.000     0.000
  WS02006249              0.24     91.72      0  01:36       0.059     0.000
  WS02006252              0.01      0.91      0  01:29       0.000     0.000
  WS02006256              0.44    284.15      0  00:10       0.146     0.000
  YS02001580              0.01     40.11      0  01:16       0.000     0.000
  YS02001583              0.01     91.57      0  01:16       0.000     0.000
  YS02001586              0.37     59.94      0  01:16       0.008     0.000
  YS02001590              0.01      0.12      0  01:35       0.000     0.000
  YS02001600              0.01      0.65      0  01:16       0.000     0.000
  YS02001601              1.75    456.66      0  01:28       1.617     0.000
  YS02001602              1.45     62.11      0  02:12       0.231     0.000
  YS02001605              0.01      3.30      0  01:16       0.000     0.000
  YS02001607              0.01     18.82      0  01:16       0.000     0.000
  YS02001610              0.94    108.16      0  01:43       0.205     0.000
  YS02001616              0.01     53.06      0  01:16       0.000     0.000
  YS02001619              0.01     24.95      0  01:16       0.000     0.000
  YS02001622              0.01     75.48      0  01:16       0.000     0.000
  YS02001625              0.79     97.27      0  01:43       0.080     0.000
  YS02001629              0.01     77.40      0  01:16       0.000     0.000
  YS02001644              0.01      4.21      0  01:43       0.000     0.000
  YS02001649              0.01     16.67      0  01:43       0.000     0.000
  YS02001655              0.01    210.43      0  02:17       0.000     0.000
  YS02001779              0.01     44.46      0  02:49       0.000     0.000
  YS02001907              0.27    234.01      0  01:26       0.062     0.000
  
  
  **********************
  Storage Volume Summary
  **********************
  
  --------------------------------------------------------------------------------------------------
                         Average     Avg  Evap Exfil       Maximum     Max    Time of Max    Maximum
                          Volume    Pcnt  Pcnt  Pcnt        Volume    Pcnt     Occurrence    Outflow
  Storage Unit           1000 m3    Full  Loss  Loss       1000 m3    Full    days hr:min        LPS
  --------------------------------------------------------------------------------------------------
  CC-storage               2.700      42     0     0         4.814      75       0  02:59    1766.00
  JK-storage               0.062      21     0     0         0.151      52       0  00:00    2000.00
  
  
  ***********************
  Outfall Loading Summary
  ***********************
  
  -----------------------------------------------------------
                         Flow       Avg       Max       Total
                         Freq      Flow      Flow      Volume
  Outfall Node           Pcnt       LPS       LPS    10^6 ltr
  -----------------------------------------------------------
  CC-1                  38.76    683.00    683.00       5.326
  CC-2                  60.88    683.00    683.00       7.908
  JK-1                  10.76   1000.00   1000.00       2.001
  JK-2                  25.19   1000.00   1000.00       4.285
  WSC                   99.99    228.78    542.30       5.137
  -----------------------------------------------------------
  System                47.12   3594.78    542.30      24.656
  
  
  ********************
  Link Flow Summary
  ********************
  
  -----------------------------------------------------------------------------
                                 Maximum  Time of Max   Maximum    Max/    Max/
                                  |Flow|   Occurrence   |Veloc|    Full    Full
  Link                 Type          LPS  days hr:min     m/sec    Flow   Depth
  -----------------------------------------------------------------------------
  1                    CONDUIT    542.30     0  01:51      2.81    0.19    0.29
  WS02003060WS02003069 CONDUIT    543.10     0  01:49      1.63    0.21    0.33
  WS02003066WSF200     CONDUIT    526.12     0  01:49      2.84    0.09    0.22
  WS02003067WS02003066 CONDUIT    525.99     0  01:49      1.19    0.17    0.41
  WS02003069WS02003072 CONDUIT    542.47     0  01:50      1.36    0.26    0.38
  WS02003072WS02003073 CONDUIT    541.72     0  01:51      1.42    1.17    0.37
  WS02004401WS02004402 CONDUIT   1171.33     0  00:01      2.51    1.41    0.86
  WS02004402WS02004403 CONDUIT    907.51     0  00:01      2.15    1.30    0.88
  WS02004403WS02004404 CONDUIT    854.37     0  00:01      1.99    0.62    0.92
  WS02004404WS02004405 CONDUIT    797.19     0  00:01      2.28    7.81    0.96
  WS02004405WS02004406 CONDUIT    655.67     0  00:02      2.17    1.29    0.95
  WS02004406WS02004407 CONDUIT    533.32     0  01:47      1.03    0.24    0.62
  WS02004407WS02004409 CONDUIT    533.14     0  01:47      1.91    0.19    0.48
  WS02004409WS02004410 CONDUIT    530.76     0  01:47      1.32    0.69    0.67
  WS02004410WS02004411 CONDUIT    528.77     0  01:48      1.24    0.72    0.68
  WS02004411WS02004412 CONDUIT    527.27     0  01:48      1.16    0.75    0.69
  WS02004412WS02004413 CONDUIT    526.19     0  01:48      1.14    0.35    0.77
  WS02004413WS02003067 CONDUIT    525.73     0  01:49      1.10    0.23    0.59
  WS02006109WS02006110 CONDUIT   1306.78     0  00:00      3.14    2.51    1.00
  WS02006110WS02006113 CONDUIT    567.76     0  03:04      1.37    0.52    1.00
  WS02006111WS02006112 CONDUIT   2307.30     0  00:00      9.18    1.10    0.91
  WS02006112WS02006115 CONDUIT    899.27     0  00:00      1.16    0.53    1.00
  WS02006113WS02006111 CONDUIT   1176.04     0  00:00      2.46    1.41    1.00
  WS02006115WS02006116 CONDUIT   1098.16     0  00:01      1.72    1.41    1.00
  WS02006116WS02004401 CONDUIT   1677.78     0  00:00      2.92    2.31    0.84
  WS02006228WS02006109 CONDUIT    561.89     0  03:04      1.40    2.45    1.00
  WS02006229WS02006228 CONDUIT    561.42     0  03:04      1.24    1.86    1.00
  WS02006230WS02006229 CONDUIT    560.65     0  03:04      1.46   12.48    1.00
  WS02006231WS02006230 CONDUIT    572.79     0  03:03      1.57    8.69    1.00
  WS02006232WS02006231 CONDUIT    576.01     0  03:03      1.51    1.21    1.00
  WS02006234WS02006232 CONDUIT    575.11     0  03:03      1.49    1.16    1.00
  WS02006235WS02006234 CONDUIT    569.86     0  03:03      1.48    6.01    1.00
  WS02006238WS02006235 CONDUIT    423.78     0  03:08      1.69    0.95    1.00
  WS02006239WS02006238 CONDUIT    421.92     0  01:46      1.28    1.35    1.00
  WS02006240WS02006239 CONDUIT    421.88     0  03:08      1.33    1.33    1.00
  WS02006242WS02006240 CONDUIT    419.34     0  01:46      1.17    1.67    1.00
  WS02006243WS02006242 CONDUIT    419.40     0  01:46      1.45    0.90    1.00
  WS02006245WS02006243 CONDUIT    418.69     0  01:46      1.46    1.24    1.00
  WS02006247WS02006245 CONDUIT    418.47     0  01:46      1.43    3.32    1.00
  WS02006248WS02006247 CONDUIT    417.76     0  01:46      1.48    0.91    1.00
  WS02006249WS02006248 CONDUIT    417.84     0  03:09      1.45    2.29    1.00
  WS02006251WS02006249 CONDUIT    766.28     0  00:00      2.75    2.21    1.00
  WS02006252WS02006251 CONDUIT    453.14     0  00:00     18.31    1.66    1.00
  WS02006256WS02006235 CONDUIT    287.98     0  05:15      4.20    3.05    1.00
  WSF200WS02003060     CONDUIT    526.67     0  01:49      2.05    0.12    0.28
  YS02001580YS02001583 CONDUIT     77.01     0  01:16      0.57    0.30    1.00
  YS02001583YS02001586 CONDUIT    121.24     0  01:16      0.53    0.18    1.00
  YS02001586YS02001590 CONDUIT    318.59     0  01:30      1.26    0.56    1.00
  YS02001590YS02001593 CONDUIT    318.10     0  01:30      1.13    2.00    1.00
  YS02001593YS02001596 CONDUIT    317.99     0  01:38      1.68    0.50    1.00
  YS02001596YS02001600 CONDUIT    318.01     0  01:30      1.24    0.62    1.00
  YS02001600YS02001601 CONDUIT    318.24     0  01:35      1.13    0.55    1.00
  YS02001601YS02001602 CONDUIT    538.93     0  01:15      1.91    1.95    1.00
  YS02001602YS02001605 CONDUIT    539.19     0  01:15      1.91   11.41    1.00
  YS02001605YS02001607 CONDUIT    539.43     0  01:15      1.91    2.96    1.00
  YS02001607YS02001610 CONDUIT    549.24     0  01:16      0.75    0.52    1.00
  YS02001610YS02001613 CONDUIT    555.23     0  01:16      0.71    0.64    1.00
  YS02001613YS02001616 CONDUIT    561.05     0  01:16      0.75    0.48    1.00
  YS02001616YS02001619 CONDUIT    534.29     0  01:16      0.81    0.93    1.00
  YS02001619YS02001622 CONDUIT    912.93     0  01:24      1.69    1.35    1.00
  YS02001622YS02001625 CONDUIT    915.64     0  01:16      1.17    0.49    1.00
  YS02001625YS02001629 CONDUIT    915.50     0  01:16      1.18    0.44    1.00
  YS02001629YS02163301 CONDUIT    912.35     0  01:24      1.16    1.12    1.00
  YS02001633YS02163601 CONDUIT   1300.25     0  01:24      1.66    1.36    1.00
  YS02001641YS02001644 CONDUIT   1299.94     0  01:25      1.66    4.20    1.00
  YS02001644YS02001647 CONDUIT   1644.73     0  01:25      2.14    0.97    1.00
  YS02001647YS02001649 CONDUIT   1663.18     0  01:25      2.32    0.88    1.00
  YS02001649YS02001757 CONDUIT   1940.30     0  01:23      2.57    1.18    1.00
  YS02001652YS02001649 CONDUIT    354.86     0  01:35      1.23    0.18    1.00
  YS02001655YS02001652 CONDUIT    455.26     0  01:28      1.71    0.22    1.00
  YS02001658YS02001655 CONDUIT    537.74     0  01:36      1.90    0.23    0.94
  YS02001661YS02001658 CONDUIT    538.52     0  02:16      2.15    0.21    0.58
  YS02001664YS02001661 CONDUIT    319.05     0  01:27      1.95    0.10    0.37
  YS02001745YS02001748 CONDUIT    292.29     0  02:16      1.97    0.11    0.46
  YS02001748YS02001751 CONDUIT    249.20     0  01:34      1.62    0.13    0.84
  YS02001751YS02001754 CONDUIT    262.32     0  01:22      1.59    0.13    0.97
  YS02001754YS02001757 CONDUIT    266.10     0  01:22      0.97    0.11    1.00
  YS02001757CaochengTiaoxuchi CONDUIT   2712.00     0  01:29      3.90    1.17    1.00
  YS02001759YS02001757 CONDUIT    687.12     0  01:28      1.28    0.49    1.00
  YS02001762YS02001759 CONDUIT    415.09     0  01:27      0.72    0.48    1.00
  YS02001765YS02001762 CONDUIT    421.14     0  01:27      0.84    0.39    1.00
  YS02001767YS02001765 CONDUIT    441.24     0  01:28      0.94    0.55    1.00
  YS02001770YS02001767 CONDUIT    465.39     0  01:28      0.90    1.84    1.00
  YS02001774YS02001770 CONDUIT    100.97     0  01:25      0.66    0.06    1.00
  YS02001779YS02001774 CONDUIT     97.24     0  01:26      0.17    0.05    1.00
  YS02001783YS02001784 CONDUIT   1141.57     0  01:26      2.27    1.57    1.00
  YS02001784YS02001785 CONDUIT   1142.41     0  01:27      2.27    2.66    1.00
  YS02001786YS02001788 CONDUIT   1144.44     0  01:25      2.45    2.21    0.88
  YS02001788YS02001790 CONDUIT   1155.89     0  01:26      2.69    0.85    0.83
  YS02001790YS02001791 CONDUIT   1269.62     0  01:30      3.41    1.38    0.70
  YS02001791YS02001793 CONDUIT   1216.57     0  01:43      6.74    0.52    0.40
  YS02001793JiankangQianchi CONDUIT   1216.18     0  01:43      2.45    0.10    0.61
  YS02001882YS02001884 CONDUIT     48.37     0  01:12      0.37    0.06    1.00
  YS02001884YS02001887 CONDUIT     98.34     0  01:12      0.31    0.13    1.00
  YS02001887YS02001890 CONDUIT    294.51     0  01:20      0.39    0.50    1.00
  YS02001890YS02001895 CONDUIT    295.59     0  01:24      0.41    0.14    1.00
  YS02001895YS02001898 CONDUIT    296.56     0  01:24      0.70    0.51    1.00
  YS02001898YS02001901 CONDUIT    297.93     0  01:24      0.55    0.19    1.00
  YS02001901YS02001904 CONDUIT    298.61     0  01:24      0.59    0.46    1.00
  YS02001904YS02001907 CONDUIT    299.59     0  01:24      0.38    0.10    1.00
  YS02001907YS02006553 CONDUIT    778.45     0  01:45      0.86    0.92    1.00
  YS02001910YS02001907 CONDUIT    669.18     0  01:26      0.85    0.38    1.00
  YS02001915YS02001910 CONDUIT    669.21     0  01:26      1.06    0.33    1.00
  YS02001918YS02001915 CONDUIT    283.69     0  01:26      0.44    0.16    1.00
  YS02001920YS02001918 CONDUIT    283.44     0  01:26      0.70    0.27    1.00
  YS02001923YS02001920 CONDUIT    280.59     0  01:26      0.79    0.13    1.00
  YS02001926YS02001923 CONDUIT    254.26     0  01:27      0.91    0.36    0.93
  YS02001929YS02001926 CONDUIT    231.56     0  01:26      1.02    0.11    0.82
  YS02006553YS02006556 CONDUIT    778.33     0  01:45      0.99    0.67    1.00
  YS02006556YS02006558 CONDUIT    778.27     0  01:46      0.99    0.61    1.00
  YS02006558YS02006561 CONDUIT   1142.05     0  01:25      4.04    2.52    1.00
  YS02006561YS02001783 CONDUIT   1141.32     0  01:26      2.27    0.59    1.00
  YS02163301YS02001633 CONDUIT    912.34     0  01:23      1.16    0.86    1.00
  YS02163601YS02164001 CONDUIT   1300.33     0  01:24      1.66    1.15    1.00
  YS02164001YS02001641 CONDUIT   1300.23     0  01:24      1.66    1.78    1.00
  CC-R1                PUMP       683.00     0  01:10              1.00
  CC-R2                PUMP       683.00     0  00:10              1.00
  CC-S1                PUMP       200.00     0  00:00              1.00
  CC-S2                PUMP       200.00     0  00:00              1.00
  JK-R1                PUMP      1000.00     0  00:00              1.00
  JK-R2                PUMP      1000.00     0  00:00              1.00
  JK-S                 PUMP       300.00     0  00:10              1.00
  
  
  ***************************
  Flow Classification Summary
  ***************************
  
  -------------------------------------------------------------------------------------
                      Adjusted    ---------- Fraction of Time in Flow Class ---------- 
                       /Actual         Up    Down  Sub   Sup   Up    Down  Norm  Inlet 
  Conduit               Length    Dry  Dry   Dry   Crit  Crit  Crit  Crit  Ltd   Ctrl  
  -------------------------------------------------------------------------------------
  1                       1.00   0.00  0.00  0.00  0.00  1.00  0.00  0.00  0.31  0.00
  WS02003060WS02003069    1.00   0.00  0.00  0.00  0.94  0.06  0.00  0.00  0.66  0.00
  WS02003066WSF200        1.00   0.07  0.00  0.00  0.00  0.93  0.00  0.00  0.92  0.00
  WS02003067WS02003066    1.00   0.03  0.03  0.00  0.94  0.00  0.00  0.00  0.00  0.00
  WS02003069WS02003072    1.00   0.00  0.00  0.00  1.00  0.00  0.00  0.00  0.70  0.00
  WS02003072WS02003073    1.00   0.00  0.00  0.00  0.00  0.00  0.00  1.00  0.00  0.00
  WS02004401WS02004402    1.00   0.00  0.00  0.00  1.00  0.00  0.00  0.00  0.00  0.00
  WS02004402WS02004403    1.00   0.00  0.00  0.00  1.00  0.00  0.00  0.00  0.00  0.00
  WS02004403WS02004404    1.00   0.00  0.00  0.00  1.00  0.00  0.00  0.00  0.00  0.00
  WS02004404WS02004405    1.00   0.00  0.00  0.00  1.00  0.00  0.00  0.00  0.00  0.00
  WS02004405WS02004406    1.00   0.00  0.00  0.00  1.00  0.00  0.00  0.00  0.00  0.00
  WS02004406WS02004407    1.00   0.00  0.00  0.00  1.00  0.00  0.00  0.00  0.00  0.00
  WS02004407WS02004409    1.00   0.00  0.00  0.00  0.99  0.01  0.00  0.00  0.99  0.00
  WS02004409WS02004410    1.00   0.00  0.00  0.00  1.00  0.00  0.00  0.00  0.00  0.00
  WS02004410WS02004411    1.00   0.00  0.00  0.00  1.00  0.00  0.00  0.00  0.00  0.00
  WS02004411WS02004412    1.00   0.00  0.00  0.00  0.99  0.00  0.00  0.00  0.00  0.00
  WS02004412WS02004413    1.00   0.00  0.00  0.00  0.99  0.01  0.00  0.00  0.00  0.00
  WS02004413WS02003067    1.00   0.00  0.02  0.00  0.00  0.00  0.97  0.00  0.00  0.00
  WS02006109WS02006110    1.00   0.00  0.00  0.00  1.00  0.00  0.00  0.00  0.00  0.00
  WS02006110WS02006113    1.00   0.00  0.00  0.00  1.00  0.00  0.00  0.00  0.00  0.00
  WS02006111WS02006112    1.00   0.00  0.00  0.00  1.00  0.00  0.00  0.00  1.00  0.00
  WS02006112WS02006115    1.00   0.00  0.00  0.00  1.00  0.00  0.00  0.00  0.00  0.00
  WS02006113WS02006111    1.00   0.00  0.00  0.00  0.00  1.00  0.00  0.00  0.14  0.00
  WS02006115WS02006116    1.00   0.00  0.00  0.00  1.00  0.00  0.00  0.00  0.00  0.00
  WS02006116WS02004401    1.00   0.00  0.00  0.00  1.00  0.00  0.00  0.00  0.00  0.00
  WS02006228WS02006109    1.00   0.00  0.00  0.00  1.00  0.00  0.00  0.00  0.00  0.00
  WS02006229WS02006228    1.00   0.00  0.00  0.00  1.00  0.00  0.00  0.00  0.00  0.00
  WS02006230WS02006229    1.00   0.00  0.00  0.00  1.00  0.00  0.00  0.00  0.02  0.00
  WS02006231WS02006230    1.00   0.00  0.00  0.00  0.42  0.00  0.58  0.00  0.00  0.00
  WS02006232WS02006231    1.00   0.00  0.00  0.00  0.99  0.00  0.01  0.00  0.00  0.00
  WS02006234WS02006232    1.00   0.00  0.00  0.00  1.00  0.00  0.00  0.00  0.04  0.00
  WS02006235WS02006234    1.00   0.00  0.00  0.00  0.94  0.00  0.06  0.00  0.00  0.00
  WS02006238WS02006235    1.00   0.00  0.00  0.00  0.99  0.00  0.00  0.00  0.00  0.00
  WS02006239WS02006238    1.00   0.00  0.00  0.00  0.99  0.00  0.00  0.00  0.16  0.00
  WS02006240WS02006239    1.00   0.00  0.00  0.00  0.86  0.00  0.00  0.14  0.08  0.00
  WS02006242WS02006240    1.00   0.00  0.00  0.00  0.99  0.00  0.01  0.00  0.00  0.00
  WS02006243WS02006242    1.00   0.00  0.00  0.00  0.99  0.00  0.00  0.01  0.58  0.00
  WS02006245WS02006243    1.00   0.00  0.00  0.00  0.90  0.00  0.00  0.10  0.00  0.00
  WS02006247WS02006245    1.00   0.00  0.00  0.00  0.99  0.00  0.00  0.01  0.00  0.00
  WS02006248WS02006247    1.00   0.00  0.00  0.00  0.99  0.00  0.00  0.01  0.50  0.00
  WS02006249WS02006248    1.00   0.00  0.00  0.00  0.69  0.00  0.31  0.00  0.00  0.00
  WS02006251WS02006249    1.00   0.00  0.00  0.00  1.00  0.00  0.00  0.00  0.53  0.00
  WS02006252WS02006251    1.00   0.00  0.23  0.00  0.04  0.00  0.73  0.00  0.00  0.00
  WS02006256WS02006235    1.00   0.00  0.00  0.00  0.98  0.02  0.00  0.00  0.01  0.00
  WSF200WS02003060        1.00   0.00  0.07  0.00  0.30  0.64  0.00  0.00  0.61  0.00
  YS02001580YS02001583    1.00   0.15  0.32  0.00  0.53  0.00  0.00  0.00  0.61  0.00
  YS02001583YS02001586    1.00   0.26  0.15  0.00  0.59  0.00  0.00  0.00  0.62  0.00
  YS02001586YS02001590    1.00   0.13  0.00  0.00  0.67  0.02  0.00  0.18  0.27  0.00
  YS02001590YS02001593    1.00   0.13  0.00  0.00  0.41  0.00  0.46  0.00  0.00  0.00
  YS02001593YS02001596    1.00   0.13  0.00  0.00  0.42  0.00  0.00  0.44  0.01  0.00
  YS02001596YS02001600    1.00   0.13  0.00  0.00  0.45  0.01  0.00  0.41  0.03  0.00
  YS02001600YS02001601    1.00   0.13  0.00  0.00  0.86  0.00  0.00  0.00  0.54  0.00
  YS02001601YS02001602    1.00   0.13  0.00  0.00  0.87  0.00  0.00  0.00  0.00  0.00
  YS02001602YS02001605    1.00   0.13  0.00  0.00  0.87  0.00  0.00  0.00  0.00  0.00
  YS02001605YS02001607    1.00   0.13  0.00  0.00  0.87  0.00  0.00  0.00  0.00  0.00
  YS02001607YS02001610    1.00   0.13  0.00  0.00  0.86  0.00  0.00  0.00  0.00  0.00
  YS02001610YS02001613    1.00   0.13  0.00  0.00  0.87  0.00  0.00  0.00  0.00  0.00
  YS02001613YS02001616    1.00   0.13  0.00  0.00  0.87  0.00  0.00  0.00  0.00  0.00
  YS02001616YS02001619    1.00   0.13  0.00  0.00  0.87  0.00  0.00  0.00  0.00  0.00
  YS02001619YS02001622    1.00   0.13  0.00  0.00  0.86  0.00  0.00  0.00  0.26  0.00
  YS02001622YS02001625    1.00   0.13  0.00  0.00  0.86  0.00  0.00  0.00  0.01  0.00
  YS02001625YS02001629    1.00   0.13  0.01  0.00  0.44  0.00  0.42  0.00  0.00  0.00
  YS02001629YS02163301    1.00   0.14  0.00  0.00  0.86  0.00  0.00  0.00  0.00  0.00
  YS02001633YS02163601    1.00   0.00  0.00  0.00  1.00  0.00  0.00  0.00  0.13  0.00
  YS02001641YS02001644    1.00   0.00  0.00  0.00  1.00  0.00  0.00  0.00  0.00  0.00
  YS02001644YS02001647    1.00   0.00  0.14  0.00  0.86  0.00  0.00  0.00  0.00  0.00
  YS02001647YS02001649    1.00   0.00  0.14  0.00  0.62  0.24  0.00  0.00  0.54  0.00
  YS02001649YS02001757    1.00   0.00  0.00  0.00  0.77  0.23  0.00  0.00  0.35  0.00
  YS02001652YS02001649    1.00   0.00  0.00  0.00  0.99  0.01  0.00  0.00  0.67  0.00
  YS02001655YS02001652    1.00   0.00  0.00  0.00  0.46  0.00  0.00  0.54  0.03  0.00
  YS02001658YS02001655    1.00   0.00  0.14  0.00  0.70  0.16  0.00  0.00  0.61  0.00
  YS02001661YS02001658    1.00   0.14  0.00  0.00  0.52  0.35  0.00  0.00  0.66  0.00
  YS02001664YS02001661    1.00   0.13  0.00  0.00  0.60  0.26  0.00  0.00  0.87  0.00
  YS02001745YS02001748    1.00   0.00  0.00  0.00  0.31  0.02  0.00  0.67  0.13  0.00
  YS02001748YS02001751    1.00   0.00  0.00  0.00  0.90  0.10  0.00  0.00  0.72  0.00
  YS02001751YS02001754    1.00   0.00  0.00  0.00  0.45  0.00  0.00  0.55  0.02  0.00
  YS02001754YS02001757    1.00   0.00  0.00  0.00  1.00  0.00  0.00  0.00  0.71  0.00
  YS02001757CaochengTiaoxuchi    1.00   0.00  0.00  0.00  0.92  0.08  0.00  0.00  0.68  0.00
  YS02001759YS02001757    1.00   0.00  0.00  0.00  1.00  0.00  0.00  0.00  0.61  0.00
  YS02001762YS02001759    1.00   0.00  0.00  0.00  1.00  0.00  0.00  0.00  0.01  0.00
  YS02001765YS02001762    1.00   0.00  0.00  0.00  1.00  0.00  0.00  0.00  0.65  0.00
  YS02001767YS02001765    1.00   0.00  0.00  0.00  1.00  0.00  0.00  0.00  0.00  0.00
  YS02001770YS02001767    1.00   0.00  0.00  0.00  1.00  0.00  0.00  0.00  0.00  0.00
  YS02001774YS02001770    1.00   0.00  0.13  0.00  0.80  0.00  0.07  0.00  0.00  0.00
  YS02001779YS02001774    1.00   0.00  0.00  0.00  1.00  0.00  0.00  0.00  0.69  0.00
  YS02001783YS02001784    1.00   0.00  0.14  0.00  0.86  0.00  0.00  0.00  0.53  0.00
  YS02001784YS02001785    1.00   0.00  0.00  0.00  1.00  0.00  0.00  0.00  0.13  0.00
  YS02001786YS02001788    1.00   0.00  0.00  0.00  0.67  0.33  0.00  0.00  0.00  0.00
  YS02001788YS02001790    1.00   0.00  0.00  0.00  0.19  0.81  0.00  0.00  0.74  0.00
  YS02001790YS02001791    1.00   0.00  0.00  0.00  0.02  0.98  0.00  0.00  0.15  0.00
  YS02001791YS02001793    1.00   0.00  0.00  0.00  0.00  1.00  0.00  0.00  0.01  0.00
  YS02001793JiankangQianchi    1.00   0.00  0.00  0.00  0.91  0.09  0.00  0.00  1.00  0.00
  YS02001882YS02001884    1.00   0.14  0.00  0.00  0.86  0.00  0.00  0.00  0.00  0.00
  YS02001884YS02001887    1.00   0.10  0.03  0.00  0.87  0.00  0.00  0.00  0.00  0.00
  YS02001887YS02001890    1.00   0.00  0.00  0.00  0.93  0.00  0.07  0.00  0.00  0.00
  YS02001890YS02001895    1.00   0.00  0.14  0.00  0.86  0.00  0.00  0.00  0.00  0.00
  YS02001895YS02001898    1.00   0.14  0.00  0.00  0.86  0.00  0.00  0.00  0.00  0.00
  YS02001898YS02001901    1.00   0.14  0.00  0.00  0.86  0.00  0.00  0.00  0.00  0.00
  YS02001901YS02001904    1.00   0.14  0.00  0.00  0.86  0.00  0.00  0.00  0.00  0.00
  YS02001904YS02001907    1.00   0.00  0.14  0.00  0.86  0.00  0.00  0.00  0.00  0.00
  YS02001907YS02006553    1.00   0.00  0.05  0.00  0.95  0.00  0.00  0.00  0.00  0.00
  YS02001910YS02001907    1.00   0.00  0.00  0.00  0.93  0.01  0.00  0.06  0.10  0.00
  YS02001915YS02001910    1.00   0.00  0.00  0.00  0.95  0.05  0.00  0.00  0.11  0.00
  YS02001918YS02001915    1.00   0.00  0.00  0.00  0.95  0.05  0.00  0.00  0.64  0.00
  YS02001920YS02001918    1.00   0.00  0.00  0.00  1.00  0.00  0.00  0.00  0.01  0.00
  YS02001923YS02001920    1.00   0.00  0.00  0.00  1.00  0.00  0.00  0.00  0.85  0.00
  YS02001926YS02001923    1.00   0.00  0.11  0.00  0.17  0.00  0.72  0.00  0.00  0.00
  YS02001929YS02001926    1.00   0.00  0.13  0.00  0.87  0.00  0.00  0.00  0.81  0.00
  YS02006553YS02006556    1.00   0.01  0.00  0.00  0.99  0.00  0.00  0.00  0.03  0.00
  YS02006556YS02006558    1.00   0.00  0.00  0.00  1.00  0.00  0.00  0.00  0.00  0.00
  YS02006558YS02006561    1.00   0.14  0.00  0.00  0.13  0.73  0.00  0.00  0.13  0.00
  YS02006561YS02001783    1.00   0.14  0.00  0.00  0.30  0.56  0.00  0.00  0.61  0.00
  YS02163301YS02001633    1.00   0.00  0.14  0.00  0.86  0.00  0.00  0.00  0.00  0.00
  YS02163601YS02164001    1.00   0.00  0.11  0.00  0.89  0.00  0.00  0.00  0.00  0.00
  YS02164001YS02001641    1.00   0.00  0.11  0.00  0.89  0.00  0.00  0.00  0.05  0.00
  
  
  *************************
  Conduit Surcharge Summary
  *************************
  
  ----------------------------------------------------------------------------
                                                           Hours        Hours 
                         --------- Hours Full --------   Above Full   Capacity
  Conduit                Both Ends  Upstream  Dnstream   Normal Flow   Limited
  ----------------------------------------------------------------------------
  WS02003072WS02003073        0.01      0.01      0.01      0.31         0.01
  WS02004401WS02004402        0.01      0.01      0.01      0.01         0.01
  WS02004402WS02004403        0.01      0.01      0.01      0.01         0.01
  WS02004404WS02004405        0.01      0.01      0.01      3.25         0.01
  WS02004405WS02004406        0.01      0.01      0.01      0.15         0.01
  WS02006109WS02006110        0.20      0.21      2.17      0.24         0.01
  WS02006110WS02006113        0.01      0.01      2.16      0.01         0.01
  WS02006111WS02006112        0.01      0.01      2.40      0.01         0.01
  WS02006112WS02006115        0.01      0.01      0.17      0.01         0.01
  WS02006113WS02006111        0.01      0.01      0.01      0.01         0.01
  WS02006115WS02006116        0.01      0.01      0.01      0.01         0.01
  WS02006116WS02004401        0.01      0.01      0.01      0.02         0.01
  WS02006228WS02006109        2.14      2.17      2.14      2.71         2.14
  WS02006229WS02006228        2.13      2.14      2.13      2.35         2.13
  WS02006230WS02006229        2.23      2.32      2.23      3.50         2.23
  WS02006231WS02006230        0.21      0.21      0.24      3.19         0.01
  WS02006232WS02006231        0.23      0.23      2.17      0.25         0.01
  WS02006234WS02006232        2.12      2.12      2.17      0.25         0.25
  WS02006235WS02006234        0.30      0.30      2.13      3.11         0.01
  WS02006238WS02006235        2.13      2.13      2.17      0.01         0.01
  WS02006239WS02006238        2.14      2.14      2.14      2.23         2.08
  WS02006240WS02006239        2.12      2.13      2.13      2.24         2.05
  WS02006242WS02006240        2.13      2.13      2.17      2.40         0.01
  WS02006243WS02006242        2.13      2.13      2.15      0.01         0.01
  WS02006245WS02006243        2.12      2.12      2.12      2.05         1.94
  WS02006247WS02006245        2.12      2.12      2.12      3.07         2.12
  WS02006248WS02006247        2.12      2.12      2.12      0.01         0.01
  WS02006249WS02006248        2.11      2.12      2.11      3.03         0.01
  WS02006251WS02006249        2.11      2.12      2.11      2.33         2.09
  WS02006252WS02006251        2.40      2.40      2.47      2.40         0.01
  WS02006256WS02006235        3.14      3.15      6.25      0.50         0.01
  YS02001580YS02001583        1.16      1.16      1.68      0.01         0.01
  YS02001583YS02001586        1.19      1.19      1.80      0.01         0.01
  YS02001586YS02001590        1.80      1.80      1.86      0.01         0.01
  YS02001590YS02001593        1.86      1.86      1.87      1.85         0.01
  YS02001593YS02001596        1.87      1.87      1.94      0.01         0.01
  YS02001596YS02001600        1.96      1.96      2.01      0.01         0.01
  YS02001600YS02001601        2.04      2.04      2.18      0.01         0.01
  YS02001601YS02001602        2.13      2.13      2.21      2.02         0.01
  YS02001602YS02001605        2.10      2.10      2.13      2.72         0.01
  YS02001605YS02001607        2.08      2.10      2.08      2.13         2.07
  YS02001607YS02001610        1.83      1.83      1.85      0.01         0.01
  YS02001610YS02001613        1.83      1.83      1.85      0.01         0.01
  YS02001613YS02001616        1.80      1.80      1.83      0.01         0.01
  YS02001616YS02001619        1.79      1.79      1.80      0.01         0.01
  YS02001619YS02001622        1.79      1.79      1.79      1.82         1.58
  YS02001622YS02001625        1.79      1.79      1.92      0.01         0.01
  YS02001625YS02001629        1.76      1.76      1.92      0.01         0.01
  YS02001629YS02163301        1.92      1.92      1.92      0.23         0.62
  YS02001633YS02163601        1.94      1.94      1.96      1.72         1.52
  YS02001641YS02001644        1.88      1.91      1.88      2.22         1.88
  YS02001644YS02001647        1.63      1.63      1.88      0.01         0.01
  YS02001647YS02001649        1.63      1.63      1.73      0.01         0.01
  YS02001649YS02001757        1.72      1.73      1.78      0.49         0.43
  YS02001652YS02001649        1.58      1.58      1.73      0.01         0.01
  YS02001655YS02001652        0.29      0.29      1.54      0.01         0.01
  YS02001658YS02001655        0.01      0.01      0.29      0.01         0.01
  YS02001751YS02001754        0.01      0.01      1.24      0.01         0.01
  YS02001754YS02001757        1.40      1.40      1.78      0.01         0.01
  YS02001757CaochengTiaoxuchi        1.71      1.78      2.22      0.53         0.33
  YS02001759YS02001757        1.68      1.68      1.78      0.01         0.01
  YS02001762YS02001759        1.66      1.66      1.68      0.01         0.01
  YS02001765YS02001762        1.61      1.61      1.66      0.01         0.01
  YS02001767YS02001765        1.58      1.58      1.61      0.01         0.01
  YS02001770YS02001767        1.58      1.60      1.58      1.15         0.81
  YS02001774YS02001770        1.55      1.55      1.65      0.01         0.01
  YS02001779YS02001774        0.85      0.85      1.65      0.01         0.01
  YS02001783YS02001784        0.97      1.04      0.97      1.37         0.97
  YS02001784YS02001785        0.49      0.97      0.49      1.91         0.49
  YS02001786YS02001788        0.01      0.49      0.01      1.84         0.01
  YS02001790YS02001791        0.01      0.01      0.01      0.84         0.01
  YS02001793JiankangQianchi        0.01      0.01      6.25      0.01         0.01
  YS02001882YS02001884        0.67      0.67      0.73      0.01         0.01
  YS02001884YS02001887        0.94      0.94      1.01      0.01         0.01
  YS02001887YS02001890        1.05      1.05      1.07      0.01         0.01
  YS02001890YS02001895        0.63      0.63      1.11      0.01         0.01
  YS02001895YS02001898        0.62      0.62      0.63      0.01         0.01
  YS02001898YS02001901        0.64      0.64      0.94      0.01         0.01
  YS02001901YS02001904        0.81      0.81      0.94      0.01         0.01
  YS02001904YS02001907        0.81      0.81      1.83      0.01         0.01
  YS02001907YS02006553        1.91      1.91      1.95      0.01         0.01
  YS02001910YS02001907        1.10      1.10      1.81      0.01         0.01
  YS02001915YS02001910        0.68      0.68      1.10      0.01         0.01
  YS02001918YS02001915        0.45      0.45      0.68      0.01         0.01
  YS02001920YS02001918        0.45      0.45      0.48      0.01         0.01
  YS02001923YS02001920        0.35      0.35      0.48      0.01         0.01
  YS02006553YS02006556        1.30      1.30      1.83      0.01         0.01
  YS02006556YS02006558        1.63      1.63      1.84      0.01         0.01
  YS02006558YS02006561        0.52      1.28      0.52      1.89         0.52
  YS02006561YS02001783        0.39      0.39      1.04      0.01         0.01
  YS02163301YS02001633        1.92      1.92      1.95      0.01         0.01
  YS02163601YS02164001        1.91      1.91      1.96      0.34         0.01
  YS02164001YS02001641        1.91      1.91      1.91      1.90         1.84
  
  
  ***************
  Pumping Summary
  ***************
  
  ---------------------------------------------------------------------------------------------------------
                                                  Min       Avg       Max     Total     Power    % Time Off
                        Percent   Number of      Flow      Flow      Flow    Volume     Usage    Pump Curve
  Pump                 Utilized   Start-Ups       LPS       LPS       LPS  10^6 ltr     Kw-hr    Low   High
  ---------------------------------------------------------------------------------------------------------
  CC-R1                   27.30          40      0.00    683.00    683.00     5.370    101.95    0.0    8.0
  CC-R2                   40.38          50      0.00    683.00    683.00     7.943    145.77    0.0   35.0
  CC-S1                   36.78          72      0.00    200.00    200.00     2.119     11.38    0.0    0.0
  CC-S2                   32.10          15      0.00    200.00    200.00     1.849      9.68    0.0    0.0
  JK-R1                    6.97         153      0.00   1000.00   1000.00     2.007     12.74    0.0    0.0
  JK-R2                   14.91         174      0.00   1000.00   1000.00     4.293     26.63    0.0    0.0
  JK-S                     5.51          49      0.00    300.00    300.00     0.476      9.06    0.0    0.0
  

  Analysis begun on:  Wed Aug  9 16:42:37 2023
  Analysis ended on:  Wed Aug  9 16:43:19 2023
  Total elapsed time: 00:00:42