
  OWA STORM WATER MANAGEMENT MODEL - VERSION v5.1.14 (OWA 2022-07-31)
  --------------------------------------------------------------

  WARNING 04: minimum elevation drop used for Conduit WS02004404WS02004405
  WARNING 03: negative offset ignored for Link YS02001904YS02001907
  
  *********************************************************
  NOTE: The summary statistics displayed in this report are
  based on results found at every computational time step,  
  not just on results from each reporting time step.
  *********************************************************
  
  ****************
  Analysis Options
  ****************
  Flow Units ............... LPS
  Process Models:
    Rainfall/Runoff ........ YES
    RDII ................... NO
    Snowmelt ............... NO
    Groundwater ............ NO
    Flow Routing ........... YES
    Ponding Allowed ........ NO
    Water Quality .......... NO
  Infiltration Method ...... HORTON
  Flow Routing Method ...... DYNWAVE
  Surcharge Method ......... EXTRAN
  Starting Date ............ 08/28/2015 08:00:00
  Ending Date .............. 08/28/2015 16:00:00
  Antecedent Dry Days ...... 8.0
  Report Time Step ......... 00:01:00
  Wet Time Step ............ 00:01:00
  Dry Time Step ............ 00:01:00
  Routing Time Step ........ 30.00 sec
  Variable Time Step ....... YES
  Maximum Trials ........... 8
  Number of Threads ........ 4
  Head Tolerance ........... 0.001500 m
  
  
  **************************        Volume         Depth
  Runoff Quantity Continuity     hectare-m            mm
  **************************     ---------       -------
  Total Precipitation ......         5.130        84.691
  Evaporation Loss .........         0.000         0.000
  Infiltration Loss ........         0.260         4.297
  Surface Runoff ...........         4.810        79.401
  Final Storage ............         0.061         1.011
  Continuity Error (%) .....        -0.021
  
  
  **************************        Volume        Volume
  Flow Routing Continuity        hectare-m      10^6 ltr
  **************************     ---------     ---------
  Dry Weather Inflow .......         0.630         6.296
  Wet Weather Inflow .......         4.809        48.089
  Groundwater Inflow .......         0.000         0.000
  RDII Inflow ..............         0.000         0.000
  External Inflow ..........         0.105         1.045
  External Outflow .........         3.642        36.415
  Flooding Loss ............         1.893        18.927
  Evaporation Loss .........         0.000         0.000
  Exfiltration Loss ........         0.000         0.000
  Initial Stored Volume ....         0.303         3.031
  Final Stored Volume ......         0.322         3.215
  Continuity Error (%) .....        -0.166
  
  
  *************************
  Highest Continuity Errors
  *************************
  Node YS02001884 (3.70%)
  Node YS02001583 (-3.56%)
  Node HS02004817 (1.64%)
  Node YS02001774 (1.18%)
  
  
  ***************************
  Time-Step Critical Elements
  ***************************
  Link WS02006280WS02006229 (40.72%)
  Link YS02001791YS02001793 (14.42%)
  Link WS02006252WS02006251 (8.83%)
  Link WS02006238WS02006235 (5.30%)
  Link WS02004404WS02004405 (3.53%)
  
  
  ********************************
  Highest Flow Instability Indexes
  ********************************
  Link WS02004404WS02004405 (44)
  Link WS02006238WS02006235 (42)
  Link WS02006252WS02006251 (41)
  Link WS02006229WS02006228 (39)
  Link WS02004403WS02004404 (39)
  
  
  *************************
  Routing Time Step Summary
  *************************
  Minimum Time Step           :     0.00 sec
  Average Time Step           :     2.35 sec
  Maximum Time Step           :     6.46 sec
  Percent in Steady State     :     0.00
  Average Iterations per Step :     4.52
  Percent Not Converging      :    23.69
  
  
  ***************************
  Subcatchment Runoff Summary
  ***************************
  
  ------------------------------------------------------------------------------------------------------------------------------
                            Total      Total      Total      Total     Imperv       Perv      Total       Total     Peak  Runoff
                           Precip      Runon       Evap      Infil     Runoff     Runoff     Runoff      Runoff   Runoff   Coeff
  Subcatchment                 mm         mm         mm         mm         mm         mm         mm    10^6 ltr      LPS
  ------------------------------------------------------------------------------------------------------------------------------
  sub0                      84.69       0.00       0.00       1.06      77.54       4.87      82.41        0.07    13.38   0.973
  sub1                      84.69       0.00       0.00       1.85      74.13       7.47      81.60        0.54    97.01   0.964
  sub10                     84.69       0.00       0.00       1.30      76.64       5.48      82.12        0.91   163.99   0.970
  sub11                     84.69       0.00       0.00       1.27      76.66       5.51      82.17        0.95   178.19   0.970
  sub12                     84.69       0.00       0.00       2.07      72.52       8.95      81.47        0.71   139.71   0.962
  sub14                     84.69       0.00       0.00       1.46      75.82       6.17      81.99        0.78   143.63   0.968
  sub15                     84.69       0.00       0.00       5.73      58.32      19.68      77.99        1.34   231.15   0.921
  sub16                     84.69       0.00       0.00       5.94      55.85      22.01      77.86        0.82   149.60   0.919
  sub17                     84.69       0.00       0.00       5.79      56.68      21.32      77.99        0.67   122.08   0.921
  sub2                      84.69       0.00       0.00       8.12      52.45      23.22      75.67        0.71   117.28   0.893
  sub22                     84.69       0.00       0.00       8.66      47.50      27.76      75.26        4.75   812.86   0.889
  sub23                     84.69       0.00       0.00       7.08      52.50      24.26      76.76        3.66   635.63   0.906
  sub3                      84.69       0.00       0.00       8.79      52.41      22.55      74.95        1.69   273.69   0.885
  sub4                      84.69       0.00       0.00       2.06      73.95       7.26      81.20        1.69   274.42   0.959
  sub5                      84.69       0.00       0.00       1.13      77.46       4.80      82.26        0.93   166.94   0.971
  sub60                     84.69       0.00       0.00       1.95      73.33       8.21      81.54        1.07   201.32   0.963
  sub61                     84.69       0.00       0.00       2.84      69.17      11.56      80.73        1.48   279.17   0.953
  sub62                     84.69       0.00       0.00       1.30      76.63       5.47      82.11        2.25   404.03   0.969
  sub63                     84.69       0.00       0.00       5.27      59.17      19.30      78.46        1.78   322.20   0.926
  sub64                     84.69       0.00       0.00       2.66      70.78      10.04      80.82        1.94   336.48   0.954
  sub65                     84.69       0.00       0.00       2.30      72.42       8.71      81.13        2.23   380.30   0.958
  sub66                     84.69       0.00       0.00       6.45      59.05      18.11      77.15        3.60   588.81   0.911
  sub67                     84.69       0.00       0.00       1.24      76.69       5.54      82.22        1.53   298.10   0.971
  sub68                     84.69       0.00       0.00       2.36      71.65       9.50      81.15        2.23   409.53   0.958
  sub69                     84.69       0.00       0.00       2.16      71.87      10.55      82.42        3.05   508.28   0.973
  sub7                      84.69       0.00       0.00       1.43      75.84       6.20      82.03        0.28    52.39   0.969
  sub70                     84.69       0.00       0.00       7.01      55.72      21.79      77.51        2.24   351.86   0.915
  sub71                     84.69       0.00       0.00       1.34      76.58       5.43      82.02        2.14   366.73   0.968
  sub72                     84.69       0.00       0.00       1.20      77.35       4.73      82.08        1.13   184.10   0.969
  sub8                      84.69       0.00       0.00       1.45      75.82       6.18      82.00        0.52    97.18   0.968
  sub9                      84.69       0.00       0.00       1.45      75.82       6.17      81.99        0.39    72.83   0.968
  
  
  ******************
  Node Depth Summary
  ******************
  
  ---------------------------------------------------------------------------------
                                 Average  Maximum  Maximum  Time of Max    Reported
                                   Depth    Depth      HGL   Occurrence   Max Depth
  Node                 Type       Meters   Meters   Meters  days hr:min      Meters
  ---------------------------------------------------------------------------------
  HS02004478           JUNCTION     0.41     1.49    10.72     0  01:40        1.47
  HS02004479           JUNCTION     0.52     1.69    10.90     0  01:42        1.69
  HS02004480           JUNCTION     0.48     1.65    10.89     0  01:42        1.65
  HS02004770           JUNCTION     0.49     1.42    11.25     0  01:37        1.42
  HS02004777           JUNCTION     0.50     1.48    11.28     0  01:37        1.46
  HS02004785           JUNCTION     0.39     1.49    11.39     0  01:37        1.38
  HS02004788           JUNCTION     0.35     1.42    11.32     0  01:37        1.34
  HS02004792           JUNCTION     0.47     1.60    11.12     0  01:10        1.60
  HS02004799           JUNCTION     0.57     1.76    10.97     0  01:40        1.76
  HS02004802           JUNCTION     0.51     1.64    10.77     0  01:40        1.55
  HS02004807           JUNCTION     0.48     1.71    10.88     0  01:40        1.52
  HS02004817           JUNCTION     0.78     2.16    11.00     0  01:40        1.84
  HS02004824           JUNCTION     0.32     1.71    11.12     0  01:40        1.30
  HS02004830           JUNCTION     0.31     1.74    11.21     0  01:40        1.20
  HS02004837           JUNCTION     0.25     1.69    11.27     0  01:40        1.06
  HS02004842           JUNCTION     0.54     2.00    11.27     0  01:40        1.29
  HS02004848           JUNCTION     0.23     1.66    11.27     0  01:40        0.94
  HS02004852           JUNCTION     0.24     1.69    11.21     0  01:40        1.03
  HS02004856           JUNCTION     0.30     1.71    11.13     0  01:40        1.10
  HS02004862           JUNCTION     0.27     2.00    11.38     0  01:39        1.04
  HS02004870           JUNCTION     0.27     2.08    11.36     0  01:39        1.02
  HS02004876           JUNCTION     0.36     1.75    10.78     0  01:39        1.19
  HS02004881           JUNCTION     0.29     1.75    10.78     0  01:39        1.07
  HS02004901           JUNCTION     0.49     1.42    11.24     0  01:37        1.42
  WS02001211           JUNCTION     0.66     0.84     5.67     0  01:20        0.82
  WS02001212           JUNCTION     0.41     0.60     5.66     0  01:19        0.58
  WS02001213           JUNCTION     0.64     0.93     5.69     0  01:19        0.85
  WS02003059           JUNCTION     0.71     0.93     5.62     0  01:21        0.93
  WS02003060           JUNCTION     0.44     0.67     5.60     0  02:22        0.67
  WS02003066           JUNCTION     0.27     0.44     6.00     0  01:43        0.44
  WS02003067           JUNCTION     0.60     0.90     6.22     0  01:13        0.88
  WS02003069           JUNCTION     0.49     0.76     5.34     0  02:22        0.76
  WS02003072           JUNCTION     0.54     0.79     5.16     0  02:23        0.79
  WS02003073           JUNCTION     0.33     0.50     4.57     0  02:24        0.50
  WS02004138           JUNCTION     0.13     0.14     7.39     0  00:29        0.14
  WS02004139           JUNCTION     0.60     0.76     5.67     0  01:17        0.76
  WS02004401           JUNCTION     0.95     2.66     8.66     0  01:11        2.09
  WS02004402           JUNCTION     0.95     2.74     8.70     0  01:11        2.02
  WS02004403           JUNCTION     0.94     3.03     8.96     0  01:11        1.92
  WS02004404           JUNCTION     0.99     3.45     9.30     0  01:11        1.92
  WS02004405           JUNCTION     0.97     3.36     9.21     0  01:11        1.85
  WS02004406           JUNCTION     0.94     2.67     8.50     0  01:11        1.61
  WS02004407           JUNCTION     0.37     0.81     7.12     0  01:42        0.81
  WS02004409           JUNCTION     0.68     1.44     7.21     0  01:14        1.31
  WS02004410           JUNCTION     0.67     1.25     6.97     0  01:14        1.23
  WS02004411           JUNCTION     0.66     1.18     6.86     0  01:14        1.15
  WS02004412           JUNCTION     0.64     1.19     6.83     0  01:14        1.07
  WS02004413           JUNCTION     0.76     2.09     7.56     0  01:13        1.12
  WS02006109           JUNCTION     1.34     2.64     9.26     0  01:11        2.64
  WS02006110           JUNCTION     1.21     2.76     9.34     0  01:11        2.64
  WS02006111           JUNCTION     0.67     2.62     9.33     0  01:11        2.09
  WS02006112           JUNCTION     1.21     2.68     8.56     0  01:11        2.68
  WS02006113           JUNCTION     0.76     2.46     9.35     0  01:11        2.18
  WS02006115           JUNCTION     0.91     3.26     9.40     0  01:11        2.25
  WS02006116           JUNCTION     0.96     3.18     9.22     0  01:11        2.21
  WS02006228           JUNCTION     1.45     3.00     9.65     0  01:40        2.98
  WS02006229           JUNCTION     1.49     3.20     9.89     0  01:42        3.20
  WS02006230           JUNCTION     1.35     2.65     9.39     0  01:11        2.65
  WS02006231           JUNCTION     1.04     2.24     9.36     0  01:09        2.24
  WS02006232           JUNCTION     1.10     2.18     9.22     0  01:11        2.18
  WS02006234           JUNCTION     0.96     1.96     9.12     0  01:10        1.96
  WS02006235           JUNCTION     0.96     2.00     9.16     0  01:10        1.95
  WS02006238           JUNCTION     0.97     2.15     9.29     0  01:10        1.94
  WS02006239           JUNCTION     0.89     2.03     9.24     0  01:10        2.03
  WS02006240           JUNCTION     0.81     2.10     9.39     0  01:10        2.10
  WS02006242           JUNCTION     0.82     1.55     8.82     0  01:10        1.55
  WS02006243           JUNCTION     0.69     1.48     8.90     0  01:10        1.48
  WS02006245           JUNCTION     0.66     1.56     9.04     0  01:11        1.56
  WS02006247           JUNCTION     0.65     1.47     8.97     0  01:10        1.47
  WS02006248           JUNCTION     0.59     1.10     8.69     0  01:11        1.10
  WS02006249           JUNCTION     0.60     1.09     8.69     0  01:10        1.09
  WS02006251           JUNCTION     0.91     2.19     9.86     0  01:39        2.04
  WS02006252           JUNCTION     0.67     1.50     9.74     0  00:00        1.50
  WS02006253           JUNCTION     1.02     3.02    10.66     0  01:39        2.44
  WS02006256           JUNCTION     1.27     2.35     9.28     0  00:00        2.35
  WS02006280           JUNCTION     0.58     1.70     9.97     0  01:42        1.70
  WS02006284           JUNCTION     0.79     2.08    10.48     0  01:11        1.88
  WS02006287           JUNCTION     0.51     1.66    10.61     0  01:40        1.64
  WSF200               JUNCTION     0.28     0.54     5.78     0  01:14        0.50
  YS02001580           JUNCTION     0.22     1.05     9.59     0  01:35        0.78
  YS02001583           JUNCTION     0.26     1.03     9.52     0  01:35        0.82
  YS02001586           JUNCTION     0.39     1.13     9.30     0  01:14        1.13
  YS02001590           JUNCTION     0.54     1.40     9.26     0  01:10        1.40
  YS02001593           JUNCTION     0.47     1.40     9.26     0  01:11        1.31
  YS02001596           JUNCTION     0.64     1.79     9.21     0  01:11        1.71
  YS02001600           JUNCTION     0.75     1.87     9.00     0  01:11        1.87
  YS02001601           JUNCTION     0.94     2.06     8.90     0  01:11        2.06
  YS02001602           JUNCTION     0.82     1.87     8.77     0  01:40        1.87
  YS02001605           JUNCTION     0.76     1.78     8.68     0  02:18        1.78
  YS02001607           JUNCTION     0.68     1.67     8.52     0  02:49        1.67
  YS02001610           JUNCTION     0.73     1.68     8.48     0  02:01        1.68
  YS02001613           JUNCTION     0.68     1.70     8.54     0  02:49        1.70
  YS02001616           JUNCTION     0.61     1.61     8.52     0  02:15        1.61
  YS02001619           JUNCTION     0.59     1.58     8.51     0  02:15        1.58
  YS02001622           JUNCTION     0.58     1.56     8.46     0  02:06        1.55
  YS02001625           JUNCTION     0.83     1.78     8.38     0  02:04        1.78
  YS02001629           JUNCTION     0.73     1.85     8.40     0  02:06        1.83
  YS02001633           JUNCTION     0.78     1.99     8.44     0  02:20        1.99
  YS02001641           JUNCTION     0.71     1.99     8.42     0  02:20        1.99
  YS02001644           JUNCTION     0.69     1.92     8.35     0  02:20        1.92
  YS02001647           JUNCTION     0.44     1.68     8.29     0  02:22        1.68
  YS02001649           JUNCTION     0.49     1.96     8.35     0  02:22        1.96
  YS02001652           JUNCTION     0.35     2.08     8.67     0  02:22        2.08
  YS02001655           JUNCTION     0.25     1.76     8.61     0  02:22        1.76
  YS02001658           JUNCTION     0.16     0.70     7.84     0  02:21        0.68
  YS02001661           JUNCTION     0.16     0.39     7.80     0  02:24        0.39
  YS02001664           JUNCTION     0.08     0.21     8.14     0  01:41        0.21
  YS02001745           JUNCTION     0.07     0.19     7.71     0  01:40        0.19
  YS02001748           JUNCTION     0.13     0.60     7.67     0  02:22        0.58
  YS02001751           JUNCTION     0.19     0.79     7.67     0  02:22        0.78
  YS02001754           JUNCTION     0.29     1.15     7.76     0  02:22        1.07
  YS02001757           JUNCTION     0.49     1.63     7.90     0  02:22        1.63
  YS02001759           JUNCTION     0.42     1.54     7.90     0  02:20        1.54
  YS02001762           JUNCTION     0.41     1.43     7.83     0  02:22        1.41
  YS02001765           JUNCTION     0.38     1.37     7.82     0  02:22        1.31
  YS02001767           JUNCTION     0.37     1.30     7.79     0  02:22        1.23
  YS02001770           JUNCTION     0.38     1.30     7.79     0  02:22        1.25
  YS02001774           JUNCTION     0.45     1.40     7.82     0  02:22        1.32
  YS02001779           JUNCTION     0.27     1.16     7.85     0  02:22        1.06
  YS02001783           JUNCTION     0.40     1.20     7.34     0  02:22        1.20
  YS02001784           JUNCTION     0.40     1.10     7.16     0  02:22        1.09
  YS02001786           JUNCTION     0.33     0.86     6.89     0  02:22        0.86
  YS02001788           JUNCTION     0.25     0.61     6.59     0  02:22        0.61
  YS02001790           JUNCTION     0.29     0.72     6.36     0  02:23        0.71
  YS02001791           JUNCTION     0.18     0.43     5.90     0  02:23        0.42
  YS02001793           JUNCTION     0.09     0.26     5.10     0  01:46        0.24
  YS02001882           JUNCTION     0.46     1.57     8.28     0  02:22        1.55
  YS02001884           JUNCTION     0.55     1.67     8.28     0  02:21        1.65
  YS02001887           JUNCTION     0.63     1.74     8.28     0  02:21        1.73
  YS02001890           JUNCTION     0.66     1.77     8.28     0  02:21        1.76
  YS02001895           JUNCTION     0.43     1.53     8.27     0  02:22        1.51
  YS02001898           JUNCTION     0.44     1.54     8.27     0  02:20        1.54
  YS02001901           JUNCTION     0.55     1.66     8.27     0  02:21        1.65
  YS02001904           JUNCTION     0.53     1.63     8.26     0  02:22        1.63
  YS02001907           JUNCTION     0.85     1.96     8.25     0  02:20        1.96
  YS02001910           JUNCTION     0.65     1.78     8.28     0  02:22        1.77
  YS02001915           JUNCTION     0.46     1.58     8.30     0  02:22        1.58
  YS02001918           JUNCTION     0.27     1.24     8.30     0  02:23        1.23
  YS02001920           JUNCTION     0.34     1.30     8.31     0  02:23        1.30
  YS02001923           JUNCTION     0.19     1.05     8.31     0  02:23        1.05
  YS02001926           JUNCTION     0.20     0.87     8.31     0  02:23        0.87
  YS02001929           JUNCTION     0.10     0.62     8.32     0  02:22        0.62
  YS02006553           JUNCTION     0.85     2.01     8.30     0  02:20        2.01
  YS02006556           JUNCTION     0.82     1.91     8.22     0  02:20        1.91
  YS02006558           JUNCTION     0.86     1.95     8.22     0  02:20        1.95
  YS02006561           JUNCTION     0.23     0.86     7.52     0  02:22        0.85
  YS02163301           JUNCTION     0.74     1.91     8.42     0  02:20        1.84
  YS02163601           JUNCTION     0.79     2.06     8.46     0  02:20        2.06
  YS02164001           JUNCTION     0.71     2.01     8.47     0  02:20        2.01
  YSB1154              JUNCTION     0.65     1.93    10.99     0  01:42        1.93
  YSB1171              JUNCTION     0.80     1.95    10.85     0  01:40        1.95
  YSB1174              JUNCTION     0.61     1.80    10.91     0  01:42        1.80
  YSB6556              JUNCTION     0.55     1.78    10.95     0  01:42        1.78
  CC-1                 OUTFALL      0.00     0.00     0.00     0  00:00        0.00
  CC-2                 OUTFALL      0.00     0.00     0.00     0  00:00        0.00
  JK-1                 OUTFALL      0.00     0.00     0.00     0  00:00        0.00
  JK-2                 OUTFALL      0.00     0.00     0.00     0  00:00        0.00
  WSC                  OUTFALL      0.33     0.50     1.17     0  02:24        0.50
  CC-storage           STORAGE      0.75     1.27     6.77     0  02:34        1.27
  JK-storage           STORAGE      1.67     4.22     5.02     0  02:48        4.18
  XR-storage           STORAGE      7.81     9.26     7.26     0  08:00        9.26
  
  
  *******************
  Node Inflow Summary
  *******************
  
  -------------------------------------------------------------------------------------------------
                                  Maximum  Maximum                  Lateral       Total        Flow
                                  Lateral    Total  Time of Max      Inflow      Inflow     Balance
                                   Inflow   Inflow   Occurrence      Volume      Volume       Error
  Node                 Type           LPS      LPS  days hr:min    10^6 ltr    10^6 ltr     Percent
  -------------------------------------------------------------------------------------------------
  HS02004478           JUNCTION      0.00  2092.19     0  02:20           0        14.4      -0.015
  HS02004479           JUNCTION      0.00   322.10     0  01:41           0        1.66       0.059
  HS02004480           JUNCTION      0.00  2017.00     0  01:38           0        12.6       0.022
  HS02004770           JUNCTION    635.63   702.91     0  01:37        3.66        4.24       0.066
  HS02004777           JUNCTION      0.03   710.84     0  01:37    0.000864        4.03       0.132
  HS02004785           JUNCTION      0.15   728.05     0  01:37     0.00432        4.03       0.008
  HS02004788           JUNCTION    232.82   851.41     0  01:38        1.39        5.41       0.006
  HS02004792           JUNCTION    813.14  1582.22     0  01:38        4.76        10.2       0.005
  HS02004799           JUNCTION    143.63  1720.15     0  01:38        0.78        10.9       0.050
  HS02004802           JUNCTION      0.00   370.50     0  03:06           0        1.82       0.189
  HS02004807           JUNCTION    178.19   335.26     0  01:32       0.954        1.88       0.226
  HS02004817           JUNCTION      0.60   328.96     0  01:38      0.0173        1.01       1.665
  HS02004824           JUNCTION    274.47   563.07     0  01:38         1.7        2.17       0.021
  HS02004830           JUNCTION      0.15   556.34     0  01:38     0.00432        1.64       0.072
  HS02004837           JUNCTION    170.34   734.35     0  01:38        1.09        2.46       0.028
  HS02004842           JUNCTION      0.00   703.29     0  01:39           0        2.19       0.600
  HS02004848           JUNCTION    273.69   925.07     0  01:39        1.69        3.75       0.005
  HS02004852           JUNCTION      0.00   903.37     0  01:39           0        3.64       0.002
  HS02004856           JUNCTION     72.83   955.73     0  01:39       0.394        4.03       0.049
  HS02004862           JUNCTION    117.48  1020.50     0  01:39       0.711        4.74      -0.002
  HS02004870           JUNCTION     97.18  1009.56     0  01:40       0.524        5.26       0.002
  HS02004876           JUNCTION     97.01  1116.45     0  01:40       0.543         5.8       0.010
  HS02004881           JUNCTION     52.39  1176.99     0  01:40       0.276        6.08       0.010
  HS02004901           JUNCTION    149.60   365.89     0  02:21       0.815        1.02       0.174
  WS02001211           JUNCTION      7.35   360.96     0  01:18       0.212        5.45       0.610
  WS02001212           JUNCTION      0.00   440.90     0  01:16           0        5.42       0.290
  WS02001213           JUNCTION      0.00   415.25     0  01:15           0        5.42       0.323
  WS02003059           JUNCTION      0.00   463.97     0  01:14           0        5.42       0.590
  WS02003060           JUNCTION     16.53  1445.84     0  01:14       0.476        16.9       0.087
  WS02003066           JUNCTION      0.00  1230.71     0  01:42           0        11.1       0.013
  WS02003067           JUNCTION      0.00  1231.13     0  01:42           0        11.1       0.039
  WS02003069           JUNCTION      0.32  1440.20     0  02:22     0.00922        16.9       0.092
  WS02003072           JUNCTION      0.00  1440.20     0  02:23           0        16.9       0.124
  WS02003073           JUNCTION      1.82  1442.01     0  02:23      0.0524        16.9       0.127
  WS02004138           JUNCTION      0.00   380.00     0  00:00           0        5.25       0.054
  WS02004139           JUNCTION      0.32   286.62     0  01:17     0.00924        5.26       0.508
  WS02004401           JUNCTION      0.00  1229.79     0  01:40           0        11.2       0.093
  WS02004402           JUNCTION      0.00  1232.14     0  01:42           0        11.2       0.095
  WS02004403           JUNCTION      0.00  1234.75     0  01:42           0        11.2       0.093
  WS02004404           JUNCTION      0.16  1237.71     0  01:42     0.00467        11.2       0.075
  WS02004405           JUNCTION      0.04  1241.44     0  01:42      0.0011        11.2       0.110
  WS02004406           JUNCTION      0.00  1244.11     0  01:42           0        11.2       0.189
  WS02004407           JUNCTION      0.00  1244.82     0  01:42           0        11.1       0.013
  WS02004409           JUNCTION      0.00  1274.77     0  01:12           0        11.1       0.030
  WS02004410           JUNCTION      0.00  1299.86     0  01:12           0        11.1       0.042
  WS02004411           JUNCTION      0.00  1267.58     0  01:13           0        11.1       0.053
  WS02004412           JUNCTION      0.00  1231.08     0  01:42           0        11.1       0.071
  WS02004413           JUNCTION      0.00  1230.99     0  01:42           0        11.1       0.125
  WS02006109           JUNCTION      1.23  1262.07     0  01:11      0.0354        10.7       0.083
  WS02006110           JUNCTION      0.00  1261.71     0  01:11           0        10.6       0.073
  WS02006111           JUNCTION      0.00  1268.92     0  01:11           0        10.6       0.007
  WS02006112           JUNCTION    122.08  1307.39     0  01:11       0.669        11.2       0.171
  WS02006113           JUNCTION      0.00  1261.28     0  01:11           0        10.6       0.019
  WS02006115           JUNCTION      0.00  1254.12     0  01:11           0        11.2       0.061
  WS02006116           JUNCTION      0.00  1229.81     0  01:40           0        11.2      -0.002
  WS02006228           JUNCTION      0.00  1263.06     0  01:11           0        10.6       0.031
  WS02006229           JUNCTION      0.00  2109.67     0  01:42           0        15.7       0.045
  WS02006230           JUNCTION     10.28   932.58     0  01:42       0.296         6.5       0.141
  WS02006231           JUNCTION      0.00   643.94     0  01:09           0        4.31      -0.075
  WS02006232           JUNCTION      0.00   621.46     0  01:09           0        4.29       0.110
  WS02006234           JUNCTION      0.00   622.26     0  01:09           0        4.26       0.004
  WS02006235           JUNCTION      0.00   729.48     0  01:10           0        3.98      -0.047
  WS02006238           JUNCTION      0.00   728.92     0  01:10           0        3.83      -0.057
  WS02006239           JUNCTION      0.00   768.30     0  01:10           0        3.78      -0.098
  WS02006240           JUNCTION      0.00   866.71     0  01:10           0        3.74      -0.059
  WS02006242           JUNCTION      0.00   846.69     0  01:10           0        3.73      -0.006
  WS02006243           JUNCTION      0.00   755.53     0  01:10           0        2.88      -0.117
  WS02006245           JUNCTION      0.00   531.65     0  01:10           0        2.88       0.489
  WS02006247           JUNCTION      0.00   530.86     0  01:10           0        2.88      -0.026
  WS02006248           JUNCTION      0.00   601.80     0  01:10           0        3.35      -0.097
  WS02006249           JUNCTION      0.00  1321.31     0  01:40           0        9.96       0.126
  WS02006251           JUNCTION      0.08  1318.39     0  01:40     0.00222          10      -0.004
  WS02006252           JUNCTION      0.00   600.00     0  01:05           0        5.08      -0.562
  WS02006253           JUNCTION     13.38  1198.41     0  01:40      0.0667        6.21       0.029
  WS02006256           JUNCTION      0.00   450.00     0  00:20           0        1.15      -0.330
  WS02006280           JUNCTION      0.00  2103.98     0  01:42           0        14.3      -0.018
  WS02006284           JUNCTION      0.10  2101.47     0  01:42     0.00275        14.3      -0.003
  WS02006287           JUNCTION      0.00  2095.92     0  01:42           0        14.3       0.048
  WSF200               JUNCTION      0.00  1230.70     0  01:43           0        11.1       0.007
  YS02001580           JUNCTION      0.00    73.30     0  01:13           0     0.00839       0.059
  YS02001583           JUNCTION      0.00   112.06     0  01:35           0       0.031      -3.435
  YS02001586           JUNCTION    351.86   352.00     0  02:22        2.24        2.26       0.093
  YS02001590           JUNCTION      0.00   318.91     0  02:20           0        2.21      -0.041
  YS02001593           JUNCTION      0.00   318.80     0  02:20           0        2.21       0.011
  YS02001596           JUNCTION      0.00   318.05     0  02:18           0        2.21      -0.014
  YS02001600           JUNCTION      0.00   318.17     0  02:15           0        2.21       0.023
  YS02001601           JUNCTION    508.28   816.58     0  01:42        3.05        5.26       0.014
  YS02001602           JUNCTION      0.00   546.40     0  01:13           0        3.58       0.015
  YS02001605           JUNCTION      0.00   546.25     0  01:13           0        3.44       0.021
  YS02001607           JUNCTION      0.00   546.02     0  01:13           0        3.44       0.049
  YS02001610           JUNCTION      0.00   545.17     0  01:13           0        3.44       0.074
  YS02001613           JUNCTION      0.00   549.35     0  01:13           0        3.32       0.053
  YS02001616           JUNCTION      0.00   554.46     0  01:13           0        3.33       0.007
  YS02001619           JUNCTION    588.81   934.14     0  01:40         3.6        6.92      -0.007
  YS02001622           JUNCTION      0.00   933.30     0  01:40           0        6.91      -0.003
  YS02001625           JUNCTION      0.00   932.98     0  01:41           0        6.91       0.155
  YS02001629           JUNCTION      0.00   932.76     0  01:40           0        6.86       0.003
  YS02001633           JUNCTION    380.50  1313.27     0  01:41        2.24        9.11       0.037
  YS02001641           JUNCTION      0.00  1312.98     0  01:41           0        9.11       0.033
  YS02001644           JUNCTION    336.52  1649.62     0  01:41        1.94          11       0.029
  YS02001647           JUNCTION      0.00  1649.24     0  01:41           0          11       0.002
  YS02001649           JUNCTION      0.00  1929.74     0  01:41           0        12.8       0.009
  YS02001652           JUNCTION      0.00   387.48     0  02:07           0        1.79      -0.277
  YS02001655           JUNCTION      0.15   572.28     0  02:13     0.00443        1.79      -0.249
  YS02001658           JUNCTION      0.00   422.06     0  02:22           0        1.78       0.030
  YS02001661           JUNCTION      0.00   322.12     0  01:41           0        1.78       0.023
  YS02001664           JUNCTION    322.20   322.20     0  01:41        1.78        1.78      -0.010
  YS02001745           JUNCTION    201.33   201.33     0  01:40        1.07        1.07       0.045
  YS02001748           JUNCTION      0.04   201.53     0  01:40      0.0013        1.07       0.010
  YS02001751           JUNCTION      0.01   266.68     0  02:06    0.000317        1.07       0.109
  YS02001754           JUNCTION      0.26   246.80     0  02:24     0.00749        1.08      -0.223
  YS02001757           JUNCTION      0.00  2687.08     0  01:40           0        17.6       0.035
  YS02001759           JUNCTION    279.21   647.15     0  02:22        1.48        3.75      -0.009
  YS02001762           JUNCTION      0.00   396.30     0  02:22           0        2.27      -0.003
  YS02001765           JUNCTION      0.00   394.27     0  02:22           0        2.27       0.012
  YS02001767           JUNCTION      0.54   394.29     0  01:42      0.0154        2.27       0.013
  YS02001770           JUNCTION    404.18   410.31     0  01:42        2.25        2.32      -0.020
  YS02001774           JUNCTION      0.00    78.06     0  01:05           0       0.103       1.197
  YS02001779           JUNCTION      0.01    46.70     0  01:16    0.000144      0.0362      -0.248
  YS02001783           JUNCTION      0.00  1136.53     0  02:22           0        7.08       0.003
  YS02001784           JUNCTION      1.06  1137.90     0  02:23      0.0305        7.11       0.007
  YS02001786           JUNCTION      0.06  1137.79     0  02:22     0.00162        7.11       0.009
  YS02001788           JUNCTION      0.07  1138.14     0  02:22     0.00204        7.12       0.005
  YS02001790           JUNCTION      0.15  1147.92     0  02:25     0.00446        7.12       0.011
  YS02001791           JUNCTION      0.00  1268.43     0  02:23           0        7.12      -0.012
  YS02001793           JUNCTION      0.00  1192.67     0  02:24           0        7.12       0.004
  YS02001882           JUNCTION      0.00    69.01     0  01:11           0        0.02       3.282
  YS02001884           JUNCTION      0.00   124.24     0  01:11           0      0.0689       3.840
  YS02001887           JUNCTION    298.55   311.09     0  01:39        1.54        1.59       0.256
  YS02001890           JUNCTION      0.00   312.95     0  01:39           0        1.53       0.332
  YS02001895           JUNCTION      0.00   313.29     0  01:39           0        1.53       0.186
  YS02001898           JUNCTION      0.00   308.35     0  01:40           0        1.53      -0.052
  YS02001901           JUNCTION      0.00   311.88     0  01:40           0        1.53       0.210
  YS02001904           JUNCTION      0.00   312.64     0  01:40           0        1.55       0.172
  YS02001907           JUNCTION      0.00   805.38     0  02:23           0        4.91       0.365
  YS02001910           JUNCTION      0.00   558.47     0  02:29           0        3.36       0.212
  YS02001915           JUNCTION    366.75   558.41     0  02:29        2.15        3.36       0.042
  YS02001918           JUNCTION      0.00   247.98     0  01:49           0        1.22       0.018
  YS02001920           JUNCTION      2.87   246.71     0  02:29      0.0827        1.21       0.082
  YS02001923           JUNCTION      0.04   222.96     0  01:46     0.00109        1.13      -0.023
  YS02001926           JUNCTION      0.05   199.54     0  01:45      0.0015        1.13       0.063
  YS02001929           JUNCTION    184.10   184.10     0  01:42        1.13        1.13      -0.007
  YS02006553           JUNCTION      0.00   778.49     0  02:26           0         4.9       0.240
  YS02006556           JUNCTION      0.00   778.39     0  02:26           0        4.92       0.168
  YS02006558           JUNCTION    410.41  1137.60     0  02:22        2.26        7.14       0.045
  YS02006561           JUNCTION      0.00  1136.73     0  02:22           0        7.08       0.003
  YS02163301           JUNCTION      0.00   932.44     0  01:41           0        6.87       0.025
  YS02163601           JUNCTION      0.11  1312.92     0  01:41     0.00317         9.1       0.058
  YS02164001           JUNCTION      0.00  1313.34     0  01:41           0         9.1       0.028
  YSB1154              JUNCTION    166.94   166.94     0  01:41       0.932       0.932       0.153
  YSB1171              JUNCTION      0.00   315.79     0  01:41           0        1.65       0.390
  YSB1174              JUNCTION    139.71   139.71     0  01:40       0.712       0.712       0.181
  YSB6556              JUNCTION      0.00   168.70     0  01:41           0       0.934       0.145
  CC-1                 OUTFALL       0.00  1024.50     0  00:05           0        3.75       0.000
  CC-2                 OUTFALL       0.00  1024.50     0  00:05           0        9.68       0.000
  JK-1                 OUTFALL       0.00  1500.00     0  01:15           0        1.01       0.000
  JK-2                 OUTFALL       0.00  1500.00     0  01:15           0        5.08       0.000
  WSC                  OUTFALL       0.00  1441.97     0  02:24           0        16.9       0.000
  CC-storage           STORAGE       0.00  2613.87     0  01:41           0        19.9      -0.137
  JK-storage           STORAGE       0.00  1191.32     0  02:24           0        7.27      -0.216
  XR-storage           STORAGE     200.00   200.00     0  00:00        5.76        6.36       0.001
  
  
  **********************
  Node Surcharge Summary
  **********************
  
  Surcharging occurs when water rises above the top of the highest conduit.
  ---------------------------------------------------------------------
                                               Max. Height   Min. Depth
                                   Hours       Above Crown    Below Rim
  Node                 Type      Surcharged         Meters       Meters
  ---------------------------------------------------------------------
  HS02004478           JUNCTION        1.38          0.570        0.370
  HS02004479           JUNCTION        1.64          0.893        0.157
  HS02004480           JUNCTION        1.70          0.937        0.163
  HS02004770           JUNCTION        1.53          0.720        0.000
  HS02004777           JUNCTION        1.54          0.780        0.000
  HS02004785           JUNCTION        1.40          0.790        0.000
  HS02004788           JUNCTION        1.39          0.720        0.000
  HS02004792           JUNCTION        1.64          0.900        0.000
  HS02004799           JUNCTION        1.82          1.060        0.000
  HS02004802           JUNCTION        1.69          0.932        0.278
  HS02004807           JUNCTION        1.66          1.005        0.215
  HS02004817           JUNCTION        2.11          1.455        0.285
  HS02004824           JUNCTION        1.39          1.014        0.296
  HS02004830           JUNCTION        1.37          1.039        0.291
  HS02004837           JUNCTION        0.73          0.989        0.351
  HS02004842           JUNCTION        1.55          1.302        0.218
  HS02004848           JUNCTION        0.59          0.964        0.406
  HS02004852           JUNCTION        0.87          0.994        0.426
  HS02004856           JUNCTION        0.73          0.935        0.365
  HS02004862           JUNCTION        1.36          1.300        0.000
  HS02004870           JUNCTION        1.38          1.376        0.024
  HS02004876           JUNCTION        1.44          1.053        0.507
  HS02004881           JUNCTION        1.42          1.048        0.402
  HS02004901           JUNCTION        1.54          0.720        0.000
  WS02004401           JUNCTION        2.29          1.660        0.000
  WS02004402           JUNCTION        2.32          1.740        0.000
  WS02004403           JUNCTION        2.33          2.030        0.000
  WS02004404           JUNCTION        2.45          2.453        0.327
  WS02004405           JUNCTION        2.44          2.361        0.439
  WS02004406           JUNCTION        2.44          1.668        0.782
  WS02004409           JUNCTION        1.95          0.438        1.922
  WS02004410           JUNCTION        1.94          0.248        2.292
  WS02004411           JUNCTION        1.93          0.178        2.352
  WS02004412           JUNCTION        1.77          0.187        2.123
  WS02004413           JUNCTION        2.09          1.092        1.108
  WS02006109           JUNCTION        2.57          1.820        0.000
  WS02006110           JUNCTION        2.47          1.850        0.000
  WS02006111           JUNCTION        2.05          1.814        0.056
  WS02006112           JUNCTION        2.54          1.680        0.000
  WS02006113           JUNCTION        2.09          1.656        0.274
  WS02006115           JUNCTION        2.22          2.250        0.000
  WS02006116           JUNCTION        2.23          2.125        0.165
  WS02006228           JUNCTION        2.57          2.173        0.027
  WS02006229           JUNCTION        1.98          1.015        0.055
  WS02006230           JUNCTION        2.45          1.570        0.000
  WS02006231           JUNCTION        2.45          1.530        0.000
  WS02006232           JUNCTION        2.49          1.480        0.000
  WS02006234           JUNCTION        2.43          1.240        0.000
  WS02006235           JUNCTION        2.44          1.290        0.000
  WS02006238           JUNCTION        2.45          1.430        0.000
  WS02006239           JUNCTION        2.42          1.290        0.000
  WS02006240           JUNCTION        2.42          1.390        0.000
  WS02006242           JUNCTION        2.43          0.820        0.000
  WS02006243           JUNCTION        2.42          0.770        0.000
  WS02006245           JUNCTION        2.41          0.850        0.000
  WS02006247           JUNCTION        2.41          0.760        0.000
  WS02006248           JUNCTION        2.40          0.380        0.000
  WS02006249           JUNCTION        2.41          0.390        0.000
  WS02006251           JUNCTION        2.39          1.161        0.019
  WS02006252           JUNCTION        2.67          1.100        0.000
  WS02006253           JUNCTION        2.39          1.979        0.501
  WS02006256           JUNCTION        7.28          2.050        0.000
  WS02006280           JUNCTION        1.81          0.653        0.127
  WS02006284           JUNCTION        1.71          0.800        0.000
  WS02006287           JUNCTION        1.57          0.659        0.231
  YS02001580           JUNCTION        1.44          0.450        0.000
  YS02001583           JUNCTION        1.45          0.388        0.112
  YS02001586           JUNCTION        1.69          0.510        0.000
  YS02001590           JUNCTION        1.84          0.750        0.000
  YS02001593           JUNCTION        1.84          0.781        0.059
  YS02001596           JUNCTION        2.02          1.063        0.007
  YS02001600           JUNCTION        2.08          1.190        0.000
  YS02001601           JUNCTION        2.26          1.440        0.000
  YS02001602           JUNCTION        2.19          1.270        0.000
  YS02001605           JUNCTION        2.17          1.180        0.000
  YS02001607           JUNCTION        1.71          0.672        0.008
  YS02001610           JUNCTION        1.76          0.680        0.000
  YS02001613           JUNCTION        1.70          0.700        0.000
  YS02001616           JUNCTION        1.62          0.610        0.000
  YS02001619           JUNCTION        1.60          0.582        0.028
  YS02001622           JUNCTION        1.58          0.560        0.060
  YS02001625           JUNCTION        1.96          0.780        0.000
  YS02001629           JUNCTION        1.45          0.470        0.000
  YS02001633           JUNCTION        1.96          0.970        0.090
  YS02001641           JUNCTION        1.75          0.985        0.115
  YS02001644           JUNCTION        1.66          0.920        0.000
  YS02001647           JUNCTION        1.10          0.682        0.218
  YS02001649           JUNCTION        1.38          0.956        0.094
  YS02001652           JUNCTION        0.50          1.047        0.083
  YS02001655           JUNCTION        0.03          0.762        0.438
  YS02001754           JUNCTION        0.02          0.100        1.050
  YS02001757           JUNCTION        1.37          0.635        0.575
  YS02001759           JUNCTION        1.11          0.538        0.672
  YS02001762           JUNCTION        1.02          0.434        0.716
  YS02001765           JUNCTION        0.91          0.367        0.733
  YS02001767           JUNCTION        0.80          0.303        0.727
  YS02001770           JUNCTION        0.55          0.266        0.654
  YS02001774           JUNCTION        1.00          0.395        0.655
  YS02001779           JUNCTION        0.07          0.162        0.518
  YS02001783           JUNCTION        1.40          0.401        1.199
  YS02001784           JUNCTION        1.26          0.295        1.195
  YS02001786           JUNCTION        0.34          0.057        1.373
  YS02001882           JUNCTION        0.76          0.567        0.263
  YS02001884           JUNCTION        0.88          0.606        0.264
  YS02001887           JUNCTION        1.37          0.691        0.259
  YS02001890           JUNCTION        1.42          0.721        0.039
  YS02001895           JUNCTION        0.68          0.526        0.224
  YS02001898           JUNCTION        0.64          0.507        0.233
  YS02001901           JUNCTION        1.21          0.659        0.211
  YS02001904           JUNCTION        1.05          0.626        0.224
  YS02001907           JUNCTION        1.89          0.950        0.000
  YS02001910           JUNCTION        1.52          0.775        0.325
  YS02001915           JUNCTION        0.78          0.584        0.416
  YS02001918           JUNCTION        0.26          0.236        0.574
  YS02001920           JUNCTION        0.33          0.303        0.837
  YS02006553           JUNCTION        1.94          1.012        0.178
  YS02006556           JUNCTION        1.70          0.873        0.477
  YS02006558           JUNCTION        1.68          0.854        0.546
  YS02006561           JUNCTION        0.10          0.055        1.095
  YS02163301           JUNCTION        1.95          0.907        0.123
  YS02163601           JUNCTION        1.98          1.060        0.020
  YS02164001           JUNCTION        1.78          1.008        0.092
  YSB1154              JUNCTION        2.00          1.231        0.169
  YSB1171              JUNCTION        2.01          1.100        0.000
  YSB1174              JUNCTION        1.88          1.097        0.153
  YSB6556              JUNCTION        1.79          1.079        0.021
  
  
  *********************
  Node Flooding Summary
  *********************
  
  Flooding refers to all water that overflows a node, whether it ponds or not.
  --------------------------------------------------------------------------
                                                             Total   Maximum
                                 Maximum   Time of Max       Flood    Ponded
                        Hours       Rate    Occurrence      Volume     Depth
  Node                 Flooded       LPS   days hr:min    10^6 ltr    Meters
  --------------------------------------------------------------------------
  HS02004770              0.11    113.38      0  01:37       0.006     0.000
  HS02004777              0.01     28.44      0  01:37       0.000     0.000
  HS02004785              0.01     78.89      0  01:37       0.000     0.000
  HS02004788              0.01    114.39      0  01:37       0.000     0.000
  HS02004792              0.08    136.97      0  01:40       0.004     0.000
  HS02004799              0.01     10.90      0  01:40       0.000     0.000
  HS02004862              0.01    257.55      0  01:39       0.000     0.000
  HS02004901              0.57    365.85      0  02:21       0.441     0.000
  WS02004401              0.01    159.35      0  01:11       0.001     0.000
  WS02004402              0.01     81.62      0  01:11       0.000     0.000
  WS02004403              0.01     55.68      0  01:11       0.000     0.000
  WS02006109              0.49     95.04      0  01:42       0.076     0.000
  WS02006110              0.01     10.88      0  01:11       0.000     0.000
  WS02006112              0.01    246.19      0  01:11       0.002     0.000
  WS02006115              0.01    232.01      0  01:11       0.000     0.000
  WS02006230              1.73    479.25      0  01:42       1.934     0.000
  WS02006231              0.01    107.30      0  01:09       0.000     0.000
  WS02006232              0.41      2.82      0  01:11       0.000     0.000
  WS02006234              1.80    128.94      0  01:18       0.477     0.000
  WS02006235              0.01    152.72      0  01:10       0.000     0.000
  WS02006238              0.01    242.76      0  01:10       0.000     0.000
  WS02006239              0.01    669.23      0  01:10       0.003     0.000
  WS02006240              0.01    813.98      0  01:10       0.002     0.000
  WS02006242              1.89    747.02      0  01:10       0.850     0.000
  WS02006243              0.01    741.62      0  01:10       0.011     0.000
  WS02006245              0.01    159.49      0  01:11       0.001     0.000
  WS02006247              0.01    351.33      0  01:10       0.002     0.000
  WS02006248              2.06    392.43      0  01:12       2.430     0.000
  WS02006249              2.39   1260.44      0  01:40       8.550     0.000
  WS02006252              1.50    485.23      0  01:40       1.290     0.000
  WS02006256              0.76    442.14      0  01:45       0.833     0.000
  WS02006284              0.01    234.15      0  01:11       0.000     0.000
  YS02001580              0.01     45.53      0  01:35       0.000     0.000
  YS02001586              0.35     61.22      0  01:35       0.025     0.000
  YS02001590              0.01     61.27      0  01:10       0.000     0.000
  YS02001600              0.01      4.23      0  01:11       0.000     0.000
  YS02001601              1.58    417.96      0  01:42       1.680     0.000
  YS02001602              1.08     61.94      0  02:28       0.139     0.000
  YS02001605              0.01      0.17      0  02:20       0.000     0.000
  YS02001610              0.42    133.16      0  02:22       0.123     0.000
  YS02001613              0.01      0.89      0  02:49       0.000     0.000
  YS02001616              0.01      0.78      0  02:15       0.000     0.000
  YS02001625              0.31    117.78      0  02:22       0.043     0.000
  YS02001629              0.01     12.17      0  02:06       0.000     0.000
  YS02001644              0.01      0.92      0  02:20       0.000     0.000
  YS02001907              0.05     37.81      0  02:23       0.003     0.000
  YSB1171                 0.01     57.67      0  01:40       0.001     0.000
  
  
  **********************
  Storage Volume Summary
  **********************
  
  --------------------------------------------------------------------------------------------------
                         Average     Avg  Evap Exfil       Maximum     Max    Time of Max    Maximum
                          Volume    Pcnt  Pcnt  Pcnt        Volume    Pcnt     Occurrence    Outflow
  Storage Unit           1000 m3    Full  Loss  Loss       1000 m3    Full    days hr:min        LPS
  --------------------------------------------------------------------------------------------------
  CC-storage               2.090      33     0     0         3.550      55       0  02:34    2549.00
  JK-storage               0.084      29     0     0         0.212      73       0  02:48    3450.00
  XR-storage               0.938      65     0     0         1.111      77       0  08:00     380.00
  
  
  ***********************
  Outfall Loading Summary
  ***********************
  
  -----------------------------------------------------------
                         Flow       Avg       Max       Total
                         Freq      Flow      Flow      Volume
  Outfall Node           Pcnt       LPS       LPS    10^6 ltr
  -----------------------------------------------------------
  CC-1                  27.84    747.49   1024.50       3.745
  CC-2                  55.68   1019.99   1024.50       9.683
  JK-1                   4.78   1064.96   1500.00       1.008
  JK-2                  17.27   1495.04   1500.00       5.079
  WSC                   99.95    782.75   1441.97      16.899
  -----------------------------------------------------------
  System                41.10   5110.23   1441.97      36.415
  
  
  ********************
  Link Flow Summary
  ********************
  
  -----------------------------------------------------------------------------
                                 Maximum  Time of Max   Maximum    Max/    Max/
                                  |Flow|   Occurrence   |Veloc|    Full    Full
  Link                 Type          LPS  days hr:min     m/sec    Flow   Depth
  -----------------------------------------------------------------------------
  1                    CONDUIT   1441.97     0  02:24      3.66    0.50    0.50
  HS02004478WS02006287 CONDUIT   2095.92     0  01:42      2.92    0.59    1.00
  HS02004479HS02004480 CONDUIT    329.34     0  01:41      0.65    0.32    1.00
  HS02004480HS02004478 CONDUIT   2017.92     0  01:38      2.88    8.50    1.00
  HS02004770HS02004777 CONDUIT    710.81     0  01:37      1.02    1.30    1.00
  HS02004777HS02004785 CONDUIT    727.90     0  01:37      1.09    0.90    1.00
  HS02004785HS02004788 CONDUIT    644.99     0  02:08      1.39    4.86    1.00
  HS02004788HS02004792 CONDUIT    850.47     0  01:38      1.50    0.56    1.00
  HS02004792HS02004799 CONDUIT   1582.80     0  01:38      2.26    0.97    1.00
  HS02004799HS02004480 CONDUIT   1721.48     0  01:38      2.46    2.18    1.00
  HS02004802HS02004478 CONDUIT    402.31     0  03:06      0.76    0.35    1.00
  HS02004807HS02004802 CONDUIT    370.50     0  03:06      0.65    0.71    1.00
  HS02004817HS02004807 CONDUIT    328.36     0  01:38      0.47    0.19    1.00
  HS02004817HS02004824 CONDUIT    329.73     0  01:38      0.56    0.15    1.00
  HS02004824HS02004830 CONDUIT    556.19     0  01:38      0.82    0.73    1.00
  HS02004830HS02004837 CONDUIT    574.36     0  01:38      0.90    0.57    1.00
  HS02004837HS02004842 CONDUIT    703.29     0  01:39      1.00    0.42    1.00
  HS02004842HS02004848 CONDUIT    702.99     0  01:39      1.09    0.41    1.00
  HS02004848HS02004852 CONDUIT    903.37     0  01:39      1.51    1.02    1.00
  HS02004852HS02004856 CONDUIT    883.24     0  01:39      1.40    1.01    1.00
  HS02004856HS02004862 CONDUIT    916.66     0  01:39      1.51    0.91    1.00
  HS02004862HS02004870 CONDUIT    912.42     0  01:40      1.68    0.99    1.00
  HS02004870HS02004876 CONDUIT   1019.65     0  01:40      1.75    0.68    1.00
  HS02004876HS02004881 CONDUIT   1124.72     0  01:40      2.30   11.96    1.00
  HS02004881HS02006253 CONDUIT   1185.29     0  01:40      2.95    0.23    1.00
  HS02004901HS02004770 CONDUIT    225.72     0  02:21      0.32    0.85    1.00
  WS02001211WS02001212 CONDUIT    300.36     0  01:20      0.54    0.23    0.69
  WS02001212WS02001213 CONDUIT    313.29     0  01:19      1.04    0.48    0.58
  WS02001213WS02003059 CONDUIT    288.41     0  01:19      0.47    0.48    0.89
  WS02003059WS02003060 CONDUIT    361.88     0  01:15      0.67    0.24    0.79
  WS02003060WS02003069 CONDUIT   1439.88     0  02:22      2.25    0.56    0.59
  WS02003066WSF200     CONDUIT   1230.70     0  01:43      3.59    0.21    0.38
  WS02003067WS02003066 CONDUIT   1230.71     0  01:42      1.94    0.39    0.55
  WS02003069WS02003072 CONDUIT   1440.20     0  02:23      1.87    0.69    0.65
  WS02003072WS02003073 CONDUIT   1440.19     0  02:23      2.02    3.11    0.60
  WS02004138WS02004139 CONDUIT    190.82     0  00:29      2.16    0.04    0.42
  WS02004139WS02001211 CONDUIT    353.61     0  01:18      0.54    0.45    0.60
  WS02004401WS02004402 CONDUIT   1232.14     0  01:42      1.57    1.48    1.00
  WS02004402WS02004403 CONDUIT   1234.75     0  01:42      1.57    1.77    1.00
  WS02004403WS02004404 CONDUIT   1237.55     0  01:42      1.58    0.89    1.00
  WS02004404WS02004405 CONDUIT   1241.40     0  01:42      1.58   12.16    1.00
  WS02004405WS02004406 CONDUIT   1244.11     0  01:42      1.58    2.45    1.00
  WS02004406WS02004407 CONDUIT   1244.82     0  01:42      1.96    0.56    0.90
  WS02004407WS02004409 CONDUIT   1274.77     0  01:12      2.44    0.45    0.90
  WS02004409WS02004410 CONDUIT   1299.86     0  01:12      1.88    1.68    1.00
  WS02004410WS02004411 CONDUIT   1267.58     0  01:13      1.86    1.73    1.00
  WS02004411WS02004412 CONDUIT   1231.08     0  01:42      1.77    1.75    1.00
  WS02004412WS02004413 CONDUIT   1230.99     0  01:42      1.68    0.82    1.00
  WS02004413WS02003067 CONDUIT   1231.13     0  01:42      1.93    0.53    0.76
  WS02006109WS02006110 CONDUIT   1261.71     0  01:11      2.51    2.43    1.00
  WS02006110WS02006113 CONDUIT   1261.28     0  01:11      2.51    1.15    1.00
  WS02006111WS02006112 CONDUIT   1208.43     0  01:11      2.40    0.57    1.00
  WS02006112WS02006115 CONDUIT   1254.12     0  01:11      1.60    0.74    1.00
  WS02006113WS02006111 CONDUIT   1268.92     0  01:11      2.77    1.52    1.00
  WS02006115WS02006116 CONDUIT   1229.81     0  01:40      1.57    1.58    1.00
  WS02006116WS02004401 CONDUIT   1229.79     0  01:40      1.57    1.70    1.00
  WS02006228WS02006109 CONDUIT   1260.84     0  01:11      2.51    5.51    1.00
  WS02006229WS02006228 CONDUIT   1263.06     0  01:11      2.51    4.18    1.00
  WS02006230WS02006229 CONDUIT    922.31     0  01:42      2.40   20.53    1.00
  WS02006231WS02006230 CONDUIT    643.94     0  01:09      1.68    9.77    1.00
  WS02006232WS02006231 CONDUIT    621.46     0  01:09      1.61    1.30    1.00
  WS02006234WS02006232 CONDUIT    622.26     0  01:09      1.91    1.26    1.00
  WS02006235WS02006234 CONDUIT    599.35     0  01:10      1.58    6.32    1.00
  WS02006238WS02006235 CONDUIT    728.92     0  01:10      2.01    1.63    1.00
  WS02006239WS02006238 CONDUIT    728.61     0  01:10      2.09    2.33    1.00
  WS02006240WS02006239 CONDUIT    648.44     0  01:10      1.92    2.04    1.00
  WS02006242WS02006240 CONDUIT    550.81     0  01:10      1.44    2.19    1.00
  WS02006243WS02006242 CONDUIT    425.34     0  01:10      1.34    0.91    1.00
  WS02006245WS02006243 CONDUIT    389.68     0  03:34      1.39    1.15    1.00
  WS02006247WS02006245 CONDUIT    531.65     0  01:10      1.43    4.22    1.00
  WS02006248WS02006247 CONDUIT    530.86     0  01:10      1.39    1.16    1.00
  WS02006249WS02006248 CONDUIT    601.80     0  01:10      1.56    3.30    1.00
  WS02006251WS02006249 CONDUIT   1321.31     0  01:40      3.43    3.81    1.00
  WS02006252WS02006251 CONDUIT    605.78     0  01:25     25.27    2.22    1.00
  WS02006253WS02006251 CONDUIT   1204.19     0  01:40      3.13    3.61    1.00
  WS02006256WS02006235 CONDUIT    288.93     0  00:00      4.23    3.06    1.00
  WS02006280WS02006229 CONDUIT   2109.67     0  01:42      5.26    0.45    1.00
  WS02006284WS02006280 CONDUIT   2103.98     0  01:42      3.29    0.88    1.00
  WS02006287WS02006284 CONDUIT   2101.37     0  01:42      3.09    0.97    1.00
  WSF200WS02003060     CONDUIT   1317.85     0  01:14      3.13    0.29    0.49
  YS02001580YS02001583 CONDUIT     73.30     0  01:13      0.55    0.28    1.00
  YS02001583YS02001586 CONDUIT    112.06     0  01:35      0.45    0.17    1.00
  YS02001586YS02001590 CONDUIT    318.91     0  02:20      1.28    0.56    1.00
  YS02001590YS02001593 CONDUIT    318.80     0  02:20      1.13    2.00    1.00
  YS02001593YS02001596 CONDUIT    318.05     0  02:18      1.75    0.50    1.00
  YS02001596YS02001600 CONDUIT    318.17     0  02:15      1.26    0.62    1.00
  YS02001600YS02001601 CONDUIT    318.90     0  02:15      1.13    0.55    1.00
  YS02001601YS02001602 CONDUIT    546.40     0  01:13      1.93    1.97    1.00
  YS02001602YS02001605 CONDUIT    546.25     0  01:13      1.93   11.56    1.00
  YS02001605YS02001607 CONDUIT    546.02     0  01:13      1.93    2.99    1.00
  YS02001607YS02001610 CONDUIT    545.17     0  01:13      0.82    0.52    1.00
  YS02001610YS02001613 CONDUIT    549.35     0  01:13      0.77    0.63    1.00
  YS02001613YS02001616 CONDUIT    554.46     0  01:13      0.83    0.48    1.00
  YS02001616YS02001619 CONDUIT    550.72     0  01:13      0.87    0.96    1.00
  YS02001619YS02001622 CONDUIT    933.30     0  01:40      1.78    1.38    1.00
  YS02001622YS02001625 CONDUIT    932.98     0  01:41      1.19    0.50    1.00
  YS02001625YS02001629 CONDUIT    932.76     0  01:40      1.19    0.44    1.00
  YS02001629YS02163301 CONDUIT    932.44     0  01:41      1.19    1.15    1.00
  YS02001633YS02163601 CONDUIT   1312.81     0  01:41      1.67    1.38    1.00
  YS02001641YS02001644 CONDUIT   1313.20     0  01:41      1.67    4.25    1.00
  YS02001644YS02001647 CONDUIT   1649.24     0  01:41      2.17    0.97    1.00
  YS02001647YS02001649 CONDUIT   1638.80     0  01:41      2.32    0.87    1.00
  YS02001649YS02001757 CONDUIT   1927.38     0  01:41      2.54    1.17    1.00
  YS02001652YS02001649 CONDUIT    353.88     0  02:02      1.36    0.18    1.00
  YS02001655YS02001652 CONDUIT    387.48     0  02:07      1.78    0.19    1.00
  YS02001658YS02001655 CONDUIT    572.12     0  02:13      1.88    0.24    0.83
  YS02001661YS02001658 CONDUIT    422.06     0  02:22      2.16    0.17    0.48
  YS02001664YS02001661 CONDUIT    322.12     0  01:41      1.96    0.10    0.30
  YS02001745YS02001748 CONDUIT    201.49     0  01:40      1.96    0.08    0.35
  YS02001748YS02001751 CONDUIT    266.67     0  02:06      1.63    0.13    0.69
  YS02001751YS02001754 CONDUIT    246.54     0  02:24      1.62    0.12    0.89
  YS02001754YS02001757 CONDUIT    285.69     0  02:07      1.07    0.12    1.00
  YS02001757CaochengTiaoxuchi CONDUIT   2613.87     0  01:41      3.83    1.13    1.00
  YS02001759YS02001757 CONDUIT    648.95     0  02:22      1.32    0.46    1.00
  YS02001762YS02001759 CONDUIT    398.12     0  02:22      0.75    0.46    1.00
  YS02001765YS02001762 CONDUIT    396.30     0  02:22      0.86    0.37    1.00
  YS02001767YS02001765 CONDUIT    394.27     0  02:22      0.95    0.50    1.00
  YS02001770YS02001767 CONDUIT    393.75     0  01:42      0.92    1.56    1.00
  YS02001774YS02001770 CONDUIT     78.06     0  01:05      0.73    0.05    1.00
  YS02001779YS02001774 CONDUIT     46.70     0  01:16      0.21    0.02    1.00
  YS02001783YS02001784 CONDUIT   1136.84     0  02:23      2.26    1.57    1.00
  YS02001784YS02001785 CONDUIT   1137.73     0  02:22      2.26    2.65    1.00
  YS02001786YS02001788 CONDUIT   1138.07     0  02:22      2.43    2.19    0.88
  YS02001788YS02001790 CONDUIT   1147.77     0  02:25      2.69    0.85    0.83
  YS02001790YS02001791 CONDUIT   1268.43     0  02:23      3.40    1.38    0.70
  YS02001791YS02001793 CONDUIT   1192.67     0  02:24      6.69    0.51    0.41
  YS02001793JiankangQianchi CONDUIT   1191.32     0  02:24      2.40    0.09    0.63
  YS02001882YS02001884 CONDUIT     69.01     0  01:11      0.42    0.08    1.00
  YS02001884YS02001887 CONDUIT    124.24     0  01:11      0.37    0.17    1.00
  YS02001887YS02001890 CONDUIT    312.95     0  01:39      0.45    0.54    1.00
  YS02001890YS02001895 CONDUIT    313.29     0  01:39      0.47    0.15    1.00
  YS02001895YS02001898 CONDUIT    308.35     0  01:40      0.70    0.54    1.00
  YS02001898YS02001901 CONDUIT    311.88     0  01:40      0.60    0.20    1.00
  YS02001901YS02001904 CONDUIT    312.64     0  01:40      0.64    0.48    1.00
  YS02001904YS02001907 CONDUIT    314.40     0  01:40      0.40    0.11    1.00
  YS02001907YS02006553 CONDUIT    778.49     0  02:26      0.86    0.92    1.00
  YS02001910YS02001907 CONDUIT    558.74     0  02:29      0.71    0.31    1.00
  YS02001915YS02001910 CONDUIT    558.47     0  02:29      1.14    0.28    1.00
  YS02001918YS02001915 CONDUIT    257.51     0  01:51      0.48    0.14    1.00
  YS02001920YS02001918 CONDUIT    247.98     0  01:49      0.70    0.24    1.00
  YS02001923YS02001920 CONDUIT    243.84     0  02:29      0.79    0.11    1.00
  YS02001926YS02001923 CONDUIT    222.92     0  01:46      0.95    0.32    0.85
  YS02001929YS02001926 CONDUIT    199.49     0  01:45      1.06    0.09    0.74
  YS02006553YS02006556 CONDUIT    778.39     0  02:26      0.99    0.67    1.00
  YS02006556YS02006558 CONDUIT    779.20     0  02:26      0.99    0.62    1.00
  YS02006558YS02006561 CONDUIT   1136.73     0  02:22      4.02    2.51    1.00
  YS02006561YS02001783 CONDUIT   1136.53     0  02:22      2.27    0.59    1.00
  YS02163301YS02001633 CONDUIT    933.09     0  01:41      1.19    0.88    1.00
  YS02163601YS02164001 CONDUIT   1313.34     0  01:41      1.67    1.16    1.00
  YS02164001YS02001641 CONDUIT   1312.98     0  01:41      1.67    1.79    1.00
  YSB1154YSB6556       CONDUIT    168.70     0  01:41      0.44    0.30    1.00
  YSB1171HS02004479    CONDUIT    322.10     0  01:41      0.64    0.21    1.00
  YSB1174YSB1171       CONDUIT    140.44     0  01:41      0.36    0.22    1.00
  YSB6556YSB1171       CONDUIT    175.35     0  01:41      0.46    0.18    1.00
  CC-R1                PUMP      1024.50     0  00:05              1.50
  CC-R2                PUMP      1024.50     0  00:05              1.50
  CC-S1                PUMP       300.00     0  01:05              1.50
  CC-S2                PUMP       300.00     0  00:05              1.50
  JK-R1                PUMP      1500.00     0  01:15              1.50
  JK-R2                PUMP      1500.00     0  01:15              1.50
  JK-S                 PUMP       450.00     0  00:20              1.50
  XR-1                 PUMP        95.00     0  00:00              1.00
  XR-2                 PUMP        95.00     0  00:00              1.00
  XR-3                 PUMP        95.00     0  00:00              1.00
  XR-4                 PUMP        95.00     0  00:00              1.00
  
  
  ***************************
  Flow Classification Summary
  ***************************
  
  -------------------------------------------------------------------------------------
                      Adjusted    ---------- Fraction of Time in Flow Class ---------- 
                       /Actual         Up    Down  Sub   Sup   Up    Down  Norm  Inlet 
  Conduit               Length    Dry  Dry   Dry   Crit  Crit  Crit  Crit  Ltd   Ctrl  
  -------------------------------------------------------------------------------------
  1                       1.00   0.00  0.00  0.00  0.00  1.00  0.00  0.00  0.44  0.00
  HS02004478WS02006287    1.00   0.09  0.00  0.00  0.71  0.20  0.00  0.00  0.55  0.00
  HS02004479HS02004480    1.00   0.05  0.00  0.00  0.95  0.00  0.00  0.00  0.09  0.00
  HS02004480HS02004478    1.00   0.09  0.00  0.00  0.66  0.00  0.00  0.25  0.00  0.00
  HS02004770HS02004777    1.00   0.00  0.09  0.00  0.91  0.00  0.00  0.00  0.00  0.00
  HS02004777HS02004785    1.00   0.00  0.00  0.00  1.00  0.00  0.00  0.00  0.09  0.00
  HS02004785HS02004788    1.00   0.00  0.00  0.00  1.00  0.00  0.00  0.00  0.00  0.00
  HS02004788HS02004792    1.00   0.00  0.00  0.00  0.99  0.01  0.00  0.00  0.77  0.00
  HS02004792HS02004799    1.00   0.00  0.00  0.00  0.98  0.02  0.00  0.00  0.73  0.00
  HS02004799HS02004480    1.00   0.00  0.05  0.00  0.91  0.00  0.04  0.00  0.00  0.00
  HS02004802HS02004478    1.00   0.09  0.00  0.00  0.91  0.00  0.00  0.00  0.00  0.00
  HS02004807HS02004802    1.00   0.09  0.00  0.00  0.91  0.00  0.00  0.00  0.00  0.00
  HS02004817HS02004807    1.00   0.00  0.09  0.00  0.91  0.00  0.00  0.00  0.01  0.00
  HS02004817HS02004824    1.00   0.00  0.00  0.00  1.00  0.00  0.00  0.00  0.73  0.00
  HS02004824HS02004830    1.00   0.00  0.00  0.00  1.00  0.00  0.00  0.00  0.00  0.00
  HS02004830HS02004837    1.00   0.00  0.00  0.00  1.00  0.00  0.00  0.00  0.73  0.00
  HS02004837HS02004842    1.00   0.00  0.00  0.00  1.00  0.00  0.00  0.00  0.11  0.00
  HS02004842HS02004848    1.00   0.00  0.09  0.00  0.91  0.00  0.00  0.00  0.50  0.00
  HS02004848HS02004852    1.00   0.09  0.00  0.00  0.91  0.00  0.00  0.00  0.62  0.00
  HS02004852HS02004856    1.00   0.09  0.00  0.00  0.91  0.00  0.00  0.00  0.60  0.00
  HS02004856HS02004862    1.00   0.00  0.09  0.00  0.91  0.00  0.00  0.00  0.64  0.00
  HS02004862HS02004870    1.00   0.00  0.00  0.00  1.00  0.00  0.00  0.00  0.01  0.00
  HS02004870HS02004876    1.00   0.00  0.00  0.00  0.99  0.01  0.00  0.00  0.73  0.00
  HS02004876HS02004881    1.00   0.04  0.00  0.00  0.83  0.13  0.00  0.00  0.00  0.00
  HS02004881HS02006253    1.00   0.03  0.03  0.00  0.50  0.03  0.00  0.42  0.08  0.00
  HS02004901HS02004770    1.00   0.09  0.00  0.00  0.91  0.00  0.00  0.00  0.00  0.00
  WS02001211WS02001212    1.00   0.00  0.04  0.00  0.96  0.00  0.00  0.00  0.00  0.00
  WS02001212WS02001213    1.00   0.04  0.00  0.00  0.55  0.00  0.40  0.00  0.00  0.00
  WS02001213WS02003059    1.00   0.00  0.00  0.00  0.99  0.00  0.00  0.00  0.00  0.00
  WS02003059WS02003060    1.00   0.00  0.00  0.00  1.00  0.00  0.00  0.00  0.03  0.00
  WS02003060WS02003069    1.00   0.00  0.00  0.00  0.99  0.01  0.00  0.00  0.44  0.00
  WS02003066WSF200        1.00   0.07  0.00  0.00  0.00  0.93  0.00  0.00  0.61  0.00
  WS02003067WS02003066    1.00   0.07  0.00  0.00  0.93  0.00  0.00  0.00  0.00  0.00
  WS02003069WS02003072    1.00   0.00  0.00  0.00  1.00  0.00  0.00  0.00  0.61  0.00
  WS02003072WS02003073    1.00   0.00  0.00  0.00  0.00  0.00  0.00  1.00  0.00  0.00
  WS02004138WS02004139    1.00   0.00  0.01  0.00  0.96  0.01  0.00  0.03  0.98  0.00
  WS02004139WS02001211    1.00   0.00  0.00  0.00  0.99  0.00  0.00  0.00  0.00  0.00
  WS02004401WS02004402    1.00   0.04  0.00  0.00  0.96  0.00  0.00  0.00  0.00  0.00
  WS02004402WS02004403    1.00   0.04  0.00  0.00  0.96  0.00  0.00  0.00  0.00  0.00
  WS02004403WS02004404    1.00   0.00  0.04  0.00  0.96  0.00  0.00  0.00  0.00  0.00
  WS02004404WS02004405    1.00   0.00  0.00  0.00  1.00  0.00  0.00  0.00  0.01  0.00
  WS02004405WS02004406    1.00   0.00  0.00  0.00  1.00  0.00  0.00  0.00  0.00  0.00
  WS02004406WS02004407    1.00   0.00  0.05  0.00  0.95  0.00  0.00  0.00  0.00  0.00
  WS02004407WS02004409    1.00   0.05  0.00  0.00  0.94  0.01  0.00  0.00  0.71  0.00
  WS02004409WS02004410    1.00   0.05  0.00  0.00  0.95  0.00  0.00  0.00  0.00  0.00
  WS02004410WS02004411    1.00   0.05  0.00  0.00  0.95  0.00  0.00  0.00  0.00  0.00
  WS02004411WS02004412    1.00   0.05  0.00  0.00  0.95  0.00  0.00  0.00  0.00  0.00
  WS02004412WS02004413    1.00   0.06  0.00  0.00  0.94  0.00  0.00  0.00  0.01  0.00
  WS02004413WS02003067    1.00   0.06  0.01  0.00  0.00  0.00  0.93  0.00  0.00  0.00
  WS02006109WS02006110    1.00   0.00  0.01  0.00  0.97  0.00  0.03  0.00  0.00  0.00
  WS02006110WS02006113    1.00   0.01  0.03  0.00  0.97  0.00  0.00  0.00  0.00  0.00
  WS02006111WS02006112    1.00   0.04  0.00  0.00  0.96  0.00  0.00  0.00  0.67  0.00
  WS02006112WS02006115    1.00   0.04  0.00  0.00  0.96  0.00  0.00  0.00  0.00  0.00
  WS02006113WS02006111    1.00   0.03  0.00  0.00  0.43  0.53  0.00  0.00  0.07  0.00
  WS02006115WS02006116    1.00   0.04  0.00  0.00  0.95  0.00  0.00  0.01  0.00  0.00
  WS02006116WS02004401    1.00   0.04  0.00  0.00  0.96  0.00  0.00  0.00  0.00  0.00
  WS02006228WS02006109    1.00   0.00  0.00  0.00  1.00  0.00  0.00  0.00  0.00  0.00
  WS02006229WS02006228    1.00   0.00  0.00  0.00  0.99  0.00  0.00  0.01  0.00  0.00
  WS02006230WS02006229    1.00   0.00  0.00  0.00  0.97  0.00  0.00  0.03  0.03  0.00
  WS02006231WS02006230    1.00   0.00  0.00  0.00  0.56  0.00  0.44  0.00  0.00  0.00
  WS02006232WS02006231    1.00   0.00  0.00  0.00  0.99  0.00  0.00  0.00  0.00  0.00
  WS02006234WS02006232    1.00   0.00  0.00  0.00  1.00  0.00  0.00  0.00  0.03  0.00
  WS02006235WS02006234    1.00   0.00  0.00  0.00  0.89  0.00  0.11  0.00  0.00  0.00
  WS02006238WS02006235    1.00   0.00  0.00  0.00  1.00  0.00  0.00  0.00  0.00  0.00
  WS02006239WS02006238    1.00   0.00  0.00  0.00  1.00  0.00  0.00  0.00  0.13  0.00
  WS02006240WS02006239    1.00   0.00  0.00  0.00  0.76  0.00  0.00  0.24  0.02  0.00
  WS02006242WS02006240    1.00   0.00  0.00  0.00  0.99  0.00  0.01  0.00  0.00  0.00
  WS02006243WS02006242    1.00   0.00  0.00  0.00  0.99  0.00  0.00  0.01  0.61  0.00
  WS02006245WS02006243    1.00   0.00  0.00  0.00  0.91  0.00  0.00  0.09  0.00  0.00
  WS02006247WS02006245    1.00   0.00  0.00  0.00  0.98  0.00  0.00  0.02  0.00  0.00
  WS02006248WS02006247    1.00   0.00  0.00  0.00  0.99  0.00  0.00  0.01  0.52  0.00
  WS02006249WS02006248    1.00   0.00  0.00  0.00  0.67  0.00  0.33  0.00  0.00  0.00
  WS02006251WS02006249    1.00   0.00  0.00  0.00  0.99  0.01  0.00  0.00  0.54  0.00
  WS02006252WS02006251    1.00   0.18  0.21  0.00  0.46  0.00  0.14  0.00  0.01  0.00
  WS02006253WS02006251    1.00   0.00  0.00  0.00  0.98  0.00  0.02  0.00  0.01  0.00
  WS02006256WS02006235    1.00   0.00  0.00  0.00  0.99  0.01  0.00  0.00  0.00  0.00
  WS02006280WS02006229    1.00   0.09  0.00  0.00  0.39  0.05  0.00  0.47  0.01  0.00
  WS02006284WS02006280    1.00   0.09  0.00  0.00  0.36  0.02  0.00  0.52  0.00  0.00
  WS02006287WS02006284    1.00   0.08  0.01  0.00  0.60  0.29  0.00  0.02  0.61  0.00
  WSF200WS02003060        1.00   0.00  0.07  0.00  0.41  0.52  0.00  0.00  0.58  0.00
  YS02001580YS02001583    1.00   0.12  0.35  0.00  0.53  0.00  0.00  0.00  0.62  0.00
  YS02001583YS02001586    1.00   0.23  0.18  0.00  0.59  0.00  0.01  0.00  0.63  0.00
  YS02001586YS02001590    1.00   0.09  0.00  0.00  0.70  0.02  0.00  0.19  0.27  0.00
  YS02001590YS02001593    1.00   0.09  0.00  0.00  0.40  0.00  0.51  0.00  0.00  0.00
  YS02001593YS02001596    1.00   0.09  0.00  0.00  0.41  0.01  0.00  0.49  0.01  0.00
  YS02001596YS02001600    1.00   0.09  0.00  0.00  0.46  0.01  0.00  0.44  0.02  0.00
  YS02001600YS02001601    1.00   0.09  0.00  0.00  0.91  0.00  0.00  0.00  0.54  0.00
  YS02001601YS02001602    1.00   0.09  0.00  0.00  0.91  0.00  0.00  0.00  0.00  0.00
  YS02001602YS02001605    1.00   0.09  0.00  0.00  0.91  0.00  0.00  0.00  0.00  0.00
  YS02001605YS02001607    1.00   0.09  0.00  0.00  0.91  0.00  0.00  0.00  0.00  0.00
  YS02001607YS02001610    1.00   0.09  0.00  0.00  0.91  0.00  0.00  0.00  0.00  0.00
  YS02001610YS02001613    1.00   0.09  0.00  0.00  0.91  0.00  0.00  0.00  0.00  0.00
  YS02001613YS02001616    1.00   0.09  0.00  0.00  0.91  0.00  0.00  0.00  0.00  0.00
  YS02001616YS02001619    1.00   0.09  0.00  0.00  0.91  0.00  0.00  0.00  0.00  0.00
  YS02001619YS02001622    1.00   0.09  0.00  0.00  0.90  0.01  0.00  0.00  0.26  0.00
  YS02001622YS02001625    1.00   0.09  0.00  0.00  0.91  0.00  0.00  0.00  0.01  0.00
  YS02001625YS02001629    1.00   0.09  0.01  0.00  0.42  0.00  0.48  0.00  0.00  0.00
  YS02001629YS02163301    1.00   0.09  0.00  0.00  0.91  0.00  0.00  0.00  0.00  0.00
  YS02001633YS02163601    1.00   0.00  0.00  0.00  0.99  0.00  0.00  0.00  0.12  0.00
  YS02001641YS02001644    1.00   0.00  0.00  0.00  1.00  0.00  0.00  0.00  0.00  0.00
  YS02001644YS02001647    1.00   0.00  0.09  0.00  0.91  0.00  0.00  0.00  0.00  0.00
  YS02001647YS02001649    1.00   0.00  0.09  0.00  0.59  0.32  0.00  0.00  0.53  0.00
  YS02001649YS02001757    1.00   0.00  0.00  0.00  0.64  0.36  0.00  0.00  0.43  0.00
  YS02001652YS02001649    1.00   0.00  0.00  0.00  0.99  0.01  0.00  0.00  0.67  0.00
  YS02001655YS02001652    1.00   0.00  0.00  0.00  0.44  0.01  0.00  0.55  0.07  0.00
  YS02001658YS02001655    1.00   0.00  0.09  0.00  0.63  0.28  0.00  0.00  0.64  0.00
  YS02001661YS02001658    1.00   0.09  0.00  0.00  0.41  0.49  0.00  0.00  0.75  0.00
  YS02001664YS02001661    1.00   0.09  0.00  0.00  0.50  0.41  0.00  0.00  0.87  0.00
  YS02001745YS02001748    1.00   0.00  0.00  0.00  0.18  0.04  0.00  0.78  0.15  0.00
  YS02001748YS02001751    1.00   0.00  0.00  0.00  0.76  0.24  0.00  0.00  0.77  0.00
  YS02001751YS02001754    1.00   0.00  0.00  0.00  0.39  0.01  0.00  0.60  0.06  0.00
  YS02001754YS02001757    1.00   0.00  0.00  0.00  1.00  0.00  0.00  0.00  0.73  0.00
  YS02001757CaochengTiaoxuchi    1.00   0.00  0.00  0.00  0.88  0.12  0.00  0.00  0.75  0.00
  YS02001759YS02001757    1.00   0.00  0.00  0.00  1.00  0.00  0.00  0.00  0.57  0.00
  YS02001762YS02001759    1.00   0.00  0.00  0.00  1.00  0.00  0.00  0.00  0.02  0.00
  YS02001765YS02001762    1.00   0.00  0.00  0.00  1.00  0.00  0.00  0.00  0.67  0.00
  YS02001767YS02001765    1.00   0.00  0.00  0.00  1.00  0.00  0.00  0.00  0.00  0.00
  YS02001770YS02001767    1.00   0.00  0.00  0.00  1.00  0.00  0.00  0.00  0.01  0.00
  YS02001774YS02001770    1.00   0.00  0.09  0.00  0.83  0.00  0.08  0.00  0.00  0.00
  YS02001779YS02001774    1.00   0.00  0.00  0.00  1.00  0.00  0.00  0.00  0.71  0.00
  YS02001783YS02001784    1.00   0.00  0.10  0.00  0.90  0.00  0.00  0.00  0.53  0.00
  YS02001784YS02001785    1.00   0.00  0.00  0.00  1.00  0.00  0.00  0.00  0.12  0.00
  YS02001786YS02001788    1.00   0.00  0.00  0.00  0.67  0.33  0.00  0.00  0.00  0.00
  YS02001788YS02001790    1.00   0.00  0.00  0.00  0.13  0.87  0.00  0.00  0.73  0.00
  YS02001790YS02001791    1.00   0.00  0.00  0.00  0.02  0.98  0.00  0.00  0.13  0.00
  YS02001791YS02001793    1.00   0.00  0.00  0.00  0.00  1.00  0.00  0.00  0.00  0.00
  YS02001793JiankangQianchi    1.00   0.00  0.00  0.00  0.97  0.03  0.00  0.00  0.98  0.00
  YS02001882YS02001884    1.00   0.09  0.00  0.00  0.91  0.00  0.00  0.00  0.00  0.00
  YS02001884YS02001887    1.00   0.06  0.02  0.00  0.92  0.00  0.00  0.00  0.00  0.00
  YS02001887YS02001890    1.00   0.00  0.00  0.00  0.95  0.00  0.04  0.00  0.00  0.00
  YS02001890YS02001895    1.00   0.00  0.09  0.00  0.91  0.00  0.00  0.00  0.00  0.00
  YS02001895YS02001898    1.00   0.09  0.00  0.00  0.90  0.00  0.01  0.00  0.00  0.00
  YS02001898YS02001901    1.00   0.09  0.00  0.00  0.91  0.00  0.00  0.00  0.00  0.00
  YS02001901YS02001904    1.00   0.09  0.00  0.00  0.91  0.00  0.00  0.00  0.00  0.00
  YS02001904YS02001907    1.00   0.00  0.09  0.00  0.91  0.00  0.00  0.00  0.00  0.00
  YS02001907YS02006553    1.00   0.00  0.04  0.00  0.96  0.00  0.00  0.00  0.00  0.00
  YS02001910YS02001907    1.00   0.00  0.00  0.00  0.95  0.00  0.00  0.04  0.10  0.00
  YS02001915YS02001910    1.00   0.00  0.00  0.00  0.97  0.03  0.00  0.00  0.11  0.00
  YS02001918YS02001915    1.00   0.00  0.00  0.00  0.96  0.04  0.00  0.00  0.62  0.00
  YS02001920YS02001918    1.00   0.00  0.00  0.00  1.00  0.00  0.00  0.00  0.00  0.00
  YS02001923YS02001920    1.00   0.00  0.00  0.00  1.00  0.00  0.00  0.00  0.80  0.00
  YS02001926YS02001923    1.00   0.00  0.07  0.00  0.16  0.00  0.78  0.00  0.00  0.00
  YS02001929YS02001926    1.00   0.00  0.09  0.00  0.91  0.00  0.00  0.00  0.81  0.00
  YS02006553YS02006556    1.00   0.02  0.00  0.00  0.98  0.00  0.00  0.00  0.03  0.00
  YS02006556YS02006558    1.00   0.00  0.00  0.00  1.00  0.00  0.00  0.00  0.00  0.00
  YS02006558YS02006561    1.00   0.09  0.00  0.00  0.09  0.81  0.00  0.00  0.13  0.00
  YS02006561YS02001783    1.00   0.09  0.00  0.00  0.33  0.57  0.00  0.00  0.60  0.00
  YS02163301YS02001633    1.00   0.00  0.09  0.00  0.91  0.00  0.00  0.00  0.00  0.00
  YS02163601YS02164001    1.00   0.00  0.07  0.00  0.93  0.00  0.00  0.00  0.00  0.00
  YS02164001YS02001641    1.00   0.01  0.07  0.00  0.93  0.00  0.00  0.00  0.05  0.00
  YSB1154YSB6556          1.00   0.09  0.00  0.00  0.91  0.00  0.00  0.00  0.00  0.00
  YSB1171HS02004479       1.00   0.05  0.00  0.00  0.94  0.00  0.00  0.01  0.08  0.00
  YSB1174YSB1171          1.00   0.06  0.02  0.00  0.92  0.00  0.00  0.00  0.00  0.00
  YSB6556YSB1171          1.00   0.05  0.04  0.00  0.91  0.00  0.00  0.00  0.00  0.00
  
  
  *************************
  Conduit Surcharge Summary
  *************************
  
  ----------------------------------------------------------------------------
                                                           Hours        Hours 
                         --------- Hours Full --------   Above Full   Capacity
  Conduit                Both Ends  Upstream  Dnstream   Normal Flow   Limited
  ----------------------------------------------------------------------------
  HS02004478WS02006287        1.38      1.38      1.67      0.01         0.01
  HS02004479HS02004480        1.71      1.71      1.75      0.01         0.01
  HS02004480HS02004478        1.58      1.70      1.58      2.30         1.58
  HS02004770HS02004777        1.53      1.53      1.54      1.14         0.87
  HS02004777HS02004785        1.40      1.40      1.54      0.01         0.01
  HS02004785HS02004788        1.39      1.40      1.39      2.16         1.39
  HS02004788HS02004792        1.39      1.39      1.64      0.01         0.01
  HS02004792HS02004799        1.64      1.64      1.82      0.01         0.01
  HS02004799HS02004480        1.70      1.70      1.82      1.92         0.01
  HS02004802HS02004478        1.59      1.59      1.71      0.01         0.01
  HS02004807HS02004802        1.66      1.66      1.69      0.01         0.01
  HS02004817HS02004807        1.66      1.66      2.11      0.01         0.01
  HS02004817HS02004824        1.39      1.39      2.11      0.01         0.01
  HS02004824HS02004830        1.37      1.37      1.39      0.01         0.01
  HS02004830HS02004837        0.73      0.73      1.37      0.01         0.01
  HS02004837HS02004842        0.73      0.73      1.55      0.01         0.01
  HS02004842HS02004848        0.59      0.59      1.55      0.01         0.01
  HS02004848HS02004852        0.59      0.59      0.87      0.01         0.01
  HS02004852HS02004856        0.87      0.87      1.29      0.01         0.01
  HS02004856HS02004862        0.73      0.73      1.36      0.01         0.01
  HS02004862HS02004870        1.36      1.36      1.38      0.01         0.01
  HS02004870HS02004876        1.38      1.38      1.44      0.01         0.01
  HS02004876HS02004881        1.42      1.44      1.42      2.21         1.42
  HS02004881HS02006253        1.42      1.42      2.39      0.01         0.01
  HS02004901HS02004770        1.53      1.53      1.54      0.01         0.07
  WS02003072WS02003073        0.01      0.01      0.01      2.83         0.01
  WS02004401WS02004402        2.29      2.29      2.32      2.14         2.12
  WS02004402WS02004403        2.32      2.32      2.33      2.31         2.27
  WS02004403WS02004404        2.33      2.33      2.45      0.01         0.02
  WS02004404WS02004405        2.44      2.45      2.44      3.34         2.44
  WS02004405WS02004406        2.44      2.44      2.44      2.50         2.43
  WS02004406WS02004407        0.01      0.01      2.44      0.01         0.01
  WS02004407WS02004409        0.01      0.01      1.95      0.01         0.01
  WS02004409WS02004410        1.94      1.95      1.94      2.22         1.94
  WS02004410WS02004411        1.93      1.94      1.93      2.27         1.93
  WS02004411WS02004412        1.77      1.93      1.77      2.29         1.77
  WS02004412WS02004413        1.77      1.77      2.09      0.01         0.01
  WS02004413WS02003067        0.01      0.01      2.09      0.01         0.01
  WS02006109WS02006110        2.47      2.47      2.59      2.48         0.01
  WS02006110WS02006113        2.09      2.09      2.59      1.56         0.01
  WS02006111WS02006112        2.05      2.05      2.75      0.01         0.01
  WS02006112WS02006115        2.22      2.22      2.54      0.01         0.01
  WS02006113WS02006111        2.07      2.09      2.07      2.14         2.07
  WS02006115WS02006116        2.22      2.22      2.23      2.25         2.21
  WS02006116WS02004401        2.29      2.29      2.29      2.29         2.25
  WS02006228WS02006109        2.57      2.59      2.57      2.81         2.57
  WS02006229WS02006228        2.57      2.57      2.57      2.67         2.57
  WS02006230WS02006229        2.64      2.65      2.65      3.75         0.60
  WS02006231WS02006230        2.45      2.45      2.45      3.18         2.02
  WS02006232WS02006231        2.44      2.45      2.49      0.02         0.38
  WS02006234WS02006232        2.44      2.44      2.49      0.02         0.02
  WS02006235WS02006234        2.43      2.43      2.43      2.90         2.00
  WS02006238WS02006235        2.44      2.44      2.46      0.01         0.76
  WS02006239WS02006238        2.44      2.45      2.45      2.07         0.20
  WS02006240WS02006239        2.42      2.42      2.42      2.07         0.19
  WS02006242WS02006240        2.42      2.42      2.43      2.25         1.89
  WS02006243WS02006242        2.42      2.42      2.43      0.01         0.01
  WS02006245WS02006243        2.41      2.41      2.42      0.22         0.17
  WS02006247WS02006245        2.41      2.41      2.41      2.62         0.39
  WS02006248WS02006247        2.41      2.41      2.41      0.01         0.01
  WS02006249WS02006248        2.40      2.40      2.41      0.54         0.01
  WS02006251WS02006249        2.40      2.41      2.41      2.48         2.39
  WS02006252WS02006251        2.50      2.60      2.65      2.41         0.01
  WS02006253WS02006251        2.41      2.41      2.41      1.92         0.01
  WS02006256WS02006235        2.95      3.00      7.26      0.21         0.01
  WS02006280WS02006229        1.83      1.83      1.98      0.01         0.01
  WS02006284WS02006280        1.71      1.71      1.81      0.01         0.01
  WS02006287WS02006284        1.57      1.57      1.72      0.01         0.01
  YS02001580YS02001583        1.44      1.44      1.49      0.01         0.01
  YS02001583YS02001586        1.45      1.45      1.69      0.01         0.01
  YS02001586YS02001590        1.70      1.70      1.84      0.01         0.01
  YS02001590YS02001593        1.84      1.84      1.88      1.87         0.01
  YS02001593YS02001596        1.87      1.87      2.02      0.01         0.01
  YS02001596YS02001600        2.04      2.04      2.08      0.01         0.01
  YS02001600YS02001601        2.11      2.11      2.26      0.01         0.01
  YS02001601YS02001602        2.19      2.19      2.28      2.10         0.01
  YS02001602YS02001605        2.17      2.17      2.19      2.81         0.01
  YS02001605YS02001607        2.14      2.17      2.14      2.23         2.14
  YS02001607YS02001610        1.71      1.71      1.76      0.01         0.01
  YS02001610YS02001613        1.70      1.70      1.76      0.01         0.01
  YS02001613YS02001616        1.62      1.62      1.70      0.01         0.01
  YS02001616YS02001619        1.60      1.60      1.62      0.01         0.01
  YS02001619YS02001622        1.58      1.60      1.58      1.96         1.55
  YS02001622YS02001625        1.58      1.58      1.96      0.01         0.01
  YS02001625YS02001629        1.45      1.45      1.96      0.01         0.01
  YS02001629YS02163301        1.94      1.94      1.95      1.38         1.22
  YS02001633YS02163601        1.96      1.96      1.98      1.72         1.71
  YS02001641YS02001644        1.66      1.75      1.66      2.29         1.65
  YS02001644YS02001647        1.10      1.10      1.66      0.01         0.01
  YS02001647YS02001649        1.10      1.10      1.38      0.01         0.01
  YS02001649YS02001757        1.36      1.38      1.37      0.99         0.79
  YS02001652YS02001649        0.74      0.74      1.38      0.01         0.01
  YS02001655YS02001652        0.03      0.03      0.50      0.01         0.01
  YS02001658YS02001655        0.01      0.01      0.03      0.01         0.01
  YS02001751YS02001754        0.01      0.01      0.01      0.01         0.01
  YS02001754YS02001757        0.21      0.21      1.37      0.01         0.01
  YS02001757CaochengTiaoxuchi        1.25      1.37      1.49      0.67         0.47
  YS02001759YS02001757        1.11      1.11      1.37      0.01         0.01
  YS02001762YS02001759        1.02      1.02      1.11      0.01         0.01
  YS02001765YS02001762        0.91      0.91      1.02      0.01         0.01
  YS02001767YS02001765        0.80      0.80      0.91      0.01         0.01
  YS02001770YS02001767        0.79      0.86      0.80      1.64         0.55
  YS02001774YS02001770        0.55      0.55      1.00      0.01         0.01
  YS02001779YS02001774        0.07      0.07      1.00      0.01         0.01
  YS02001783YS02001784        1.26      1.40      1.26      1.75         1.26
  YS02001784YS02001785        0.34      1.26      0.34      2.00         0.34
  YS02001786YS02001788        0.01      0.34      0.01      1.96         0.01
  YS02001790YS02001791        0.01      0.01      0.01      1.05         0.01
  YS02001793JiankangQianchi        0.01      0.01      7.31      0.01         0.01
  YS02001882YS02001884        0.76      0.76      0.88      0.01         0.01
  YS02001884YS02001887        1.21      1.21      1.37      0.01         0.01
  YS02001887YS02001890        1.42      1.42      1.46      0.01         0.01
  YS02001890YS02001895        0.68      0.68      1.52      0.01         0.01
  YS02001895YS02001898        0.64      0.64      0.68      0.01         0.01
  YS02001898YS02001901        0.70      0.70      1.21      0.01         0.01
  YS02001901YS02001904        1.06      1.06      1.21      0.01         0.01
  YS02001904YS02001907        1.05      1.05      1.94      0.01         0.01
  YS02001907YS02006553        2.00      2.00      2.03      0.01         0.01
  YS02001910YS02001907        1.52      1.52      1.89      0.01         0.01
  YS02001915YS02001910        0.78      0.78      1.52      0.01         0.01
  YS02001918YS02001915        0.26      0.26      0.78      0.01         0.01
  YS02001920YS02001918        0.26      0.26      0.33      0.01         0.01
  YS02001923YS02001920        0.07      0.07      0.33      0.01         0.01
  YS02006553YS02006556        1.70      1.70      1.94      0.01         0.01
  YS02006556YS02006558        1.80      1.80      1.95      0.01         0.01
  YS02006558YS02006561        0.44      1.68      0.44      1.98         0.44
  YS02006561YS02001783        0.10      0.10      1.40      0.01         0.01
  YS02163301YS02001633        1.95      1.95      1.97      0.01         0.01
  YS02163601YS02164001        1.78      1.78      1.98      1.22         0.01
  YS02164001YS02001641        1.75      1.78      1.75      2.01         1.75
  YSB1154YSB6556              1.79      1.79      2.00      0.01         0.01
  YSB1171HS02004479           1.64      1.64      2.01      0.01         0.01
  YSB1174YSB1171              1.88      1.88      2.07      0.01         0.01
  YSB6556YSB1171              1.79      1.79      2.12      0.01         0.01
  
  
  ***************
  Pumping Summary
  ***************
  
  ---------------------------------------------------------------------------------------------------------
                                                  Min       Avg       Max     Total     Power    % Time Off
                        Percent   Number of      Flow      Flow      Flow    Volume     Usage    Pump Curve
  Pump                 Utilized   Start-Ups       LPS       LPS       LPS  10^6 ltr     Kw-hr    Low   High
  ---------------------------------------------------------------------------------------------------------
  CC-R1                   17.74           8      0.00    747.49   1024.50     3.746     67.57    0.0   16.4
  CC-R2                   33.21          34      0.00   1019.99   1024.50     9.695    171.42    0.0   43.9
  CC-S1                   31.67          34      0.00    281.28    300.00     2.526     20.81    0.0    0.0
  CC-S2                   29.90          22      0.00    298.44    300.00     2.554     20.97    0.0    0.0
  JK-R1                    3.27          16      0.00   1064.96   1500.00     1.007     11.21    0.0    0.0
  JK-R2                   11.81          40      0.00   1495.04   1500.00     5.080     41.15    0.0    0.0
  JK-S                     9.50          24      0.00    423.36    450.00     1.143     18.03    0.0    0.0
  XR-1                    97.91           2      0.00     95.00     95.00     2.679      9.61    0.0    0.0
  XR-2                    93.94           2      0.00     95.00     95.00     2.570      8.77    0.0    0.0
  XR-3                     0.00           1      0.00     95.00     95.00     0.000      0.00    0.0    0.0
  XR-4                     0.00           1      0.00     95.00     95.00     0.000      0.00    0.0    0.0
  

  Analysis begun on:  Tue Jul 18 18:46:20 2023
  Analysis ended on:  Tue Jul 18 18:46:29 2023
  Total elapsed time: 00:00:09