
  OWA STORM WATER MANAGEMENT MODEL - VERSION v5.1.14 (OWA 2022-07-31)
  --------------------------------------------------------------

  WARNING 04: minimum elevation drop used for Conduit WS02004404WS02004405
  WARNING 03: negative offset ignored for Link YS02001904YS02001907
  
  *********************************************************
  NOTE: The summary statistics displayed in this report are
  based on results found at every computational time step,  
  not just on results from each reporting time step.
  *********************************************************
  
  ****************
  Analysis Options
  ****************
  Flow Units ............... LPS
  Process Models:
    Rainfall/Runoff ........ YES
    RDII ................... NO
    Snowmelt ............... NO
    Groundwater ............ NO
    Flow Routing ........... YES
    Ponding Allowed ........ NO
    Water Quality .......... NO
  Infiltration Method ...... HORTON
  Flow Routing Method ...... DYNWAVE
  Surcharge Method ......... EXTRAN
  Starting Date ............ 08/28/2015 08:00:00
  Ending Date .............. 08/28/2015 16:00:00
  Antecedent Dry Days ...... 8.0
  Report Time Step ......... 00:01:00
  Wet Time Step ............ 00:01:00
  Dry Time Step ............ 00:01:00
  Routing Time Step ........ 30.00 sec
  Variable Time Step ....... YES
  Maximum Trials ........... 8
  Number of Threads ........ 4
  Head Tolerance ........... 0.001500 m
  
  
  **************************        Volume         Depth
  Runoff Quantity Continuity     hectare-m            mm
  **************************     ---------       -------
  Total Precipitation ......         6.438       106.270
  Evaporation Loss .........         0.000         0.000
  Infiltration Loss ........         0.260         4.293
  Surface Runoff ...........         6.117       100.983
  Final Storage ............         0.061         1.010
  Continuity Error (%) .....        -0.016
  
  
  **************************        Volume        Volume
  Flow Routing Continuity        hectare-m      10^6 ltr
  **************************     ---------     ---------
  Dry Weather Inflow .......         0.630         6.296
  Wet Weather Inflow .......         6.116        61.163
  Groundwater Inflow .......         0.000         0.000
  RDII Inflow ..............         0.000         0.000
  External Inflow ..........         0.105         1.045
  External Outflow .........         3.886        38.865
  Flooding Loss ............         2.959        29.593
  Evaporation Loss .........         0.000         0.000
  Exfiltration Loss ........         0.000         0.000
  Initial Stored Volume ....         0.303         3.031
  Final Stored Volume ......         0.321         3.213
  Continuity Error (%) .....        -0.190
  
  
  *************************
  Highest Continuity Errors
  *************************
  Node YS02001583 (-5.96%)
  Node YS02001884 (4.97%)
  Node HS02004817 (1.08%)
  Node YS02001774 (1.07%)
  Node YS02001658 (-1.05%)
  
  
  ***************************
  Time-Step Critical Elements
  ***************************
  Link WS02006280WS02006229 (39.85%)
  Link YS02001791YS02001793 (20.73%)
  Link WS02006252WS02006251 (12.56%)
  Link YS02001783YS02001784 (5.87%)
  Link WS02006238WS02006235 (5.43%)
  
  
  ********************************
  Highest Flow Instability Indexes
  ********************************
  Link WS02006252WS02006251 (43)
  Link WS02006229WS02006228 (41)
  Link WS02004404WS02004405 (41)
  Link WS02006238WS02006235 (40)
  Link WS02006113WS02006111 (40)
  
  
  *************************
  Routing Time Step Summary
  *************************
  Minimum Time Step           :     0.01 sec
  Average Time Step           :     2.39 sec
  Maximum Time Step           :     6.46 sec
  Percent in Steady State     :     0.00
  Average Iterations per Step :     4.62
  Percent Not Converging      :    32.20
  
  
  ***************************
  Subcatchment Runoff Summary
  ***************************
  
  ------------------------------------------------------------------------------------------------------------------------------
                            Total      Total      Total      Total     Imperv       Perv      Total       Total     Peak  Runoff
                           Precip      Runon       Evap      Infil     Runoff     Runoff     Runoff      Runoff   Runoff   Coeff
  Subcatchment                 mm         mm         mm         mm         mm         mm         mm    10^6 ltr      LPS
  ------------------------------------------------------------------------------------------------------------------------------
  sub0                     106.27       0.00       0.00       1.06      97.60       6.38     103.98        0.08    17.00   0.978
  sub1                     106.27       0.00       0.00       1.84      93.34       9.85     103.18        0.69   136.08   0.971
  sub10                    106.27       0.00       0.00       1.29      96.49       7.21     103.70        1.14   227.81   0.976
  sub11                    106.27       0.00       0.00       1.27      96.51       7.24     103.75        1.21   241.90   0.976
  sub12                    106.27       0.00       0.00       2.06      91.29      11.75     103.05        0.90   182.10   0.970
  sub14                    106.27       0.00       0.00       1.45      95.45       8.11     103.57        0.99   197.21   0.975
  sub15                    106.27       0.00       0.00       5.72      73.42      26.16      99.58        1.71   322.40   0.937
  sub16                    106.27       0.00       0.00       5.93      70.30      29.15      99.45        1.04   202.67   0.936
  sub17                    106.27       0.00       0.00       5.78      71.35      28.23      99.58        0.85   165.87   0.937
  sub2                     106.27       0.00       0.00       8.12      66.05      31.20      97.25        0.91   152.85   0.915
  sub22                    106.27       0.00       0.00       8.65      59.80      37.05      96.85        6.12  1080.16   0.911
  sub23                    106.27       0.00       0.00       7.07      66.09      32.25      98.35        4.69   872.56   0.925
  sub3                     106.27       0.00       0.00       8.80      66.00      30.52      96.52        2.17   348.42   0.908
  sub4                     106.27       0.00       0.00       2.06      93.15       9.63     102.79        2.14   384.92   0.967
  sub5                     106.27       0.00       0.00       1.13      97.53       6.31     103.84        1.18   233.50   0.977
  sub60                    106.27       0.00       0.00       1.95      92.32      10.80     103.12        1.36   272.41   0.970
  sub61                    106.27       0.00       0.00       2.84      87.08      15.23     102.31        1.88   376.96   0.963
  sub62                    106.27       0.00       0.00       1.30      96.48       7.20     103.69        2.84   564.46   0.976
  sub63                    106.27       0.00       0.00       5.26      74.49      25.56     100.05        2.27   440.86   0.941
  sub64                    106.27       0.00       0.00       2.66      89.12      13.29     102.41        2.46   479.47   0.964
  sub65                    106.27       0.00       0.00       2.30      91.20      11.52     102.72        2.83   547.07   0.967
  sub66                    106.27       0.00       0.00       6.45      74.37      24.37      98.73        4.60   776.30   0.929
  sub67                    106.27       0.00       0.00       1.24      96.54       7.27     103.80        1.93   389.28   0.977
  sub68                    106.27       0.00       0.00       2.35      90.21      12.53     102.74        2.83   564.56   0.967
  sub69                    106.27       0.00       0.00       2.15      90.22      13.79     104.01        3.85   736.18   0.979
  sub7                     106.27       0.00       0.00       1.43      95.47       8.14     103.61        0.35    70.25   0.975
  sub70                    106.27       0.00       0.00       7.03      69.96      29.11      99.07        2.86   455.12   0.932
  sub71                    106.27       0.00       0.00       1.34      96.44       7.16     103.60        2.71   526.91   0.975
  sub72                    106.27       0.00       0.00       1.19      97.42       6.25     103.67        1.43   268.16   0.975
  sub8                     106.27       0.00       0.00       1.44      95.46       8.12     103.58        0.66   132.66   0.975
  sub9                     106.27       0.00       0.00       1.45      95.46       8.12     103.57        0.50    99.74   0.975
  
  
  ******************
  Node Depth Summary
  ******************
  
  ---------------------------------------------------------------------------------
                                 Average  Maximum  Maximum  Time of Max    Reported
                                   Depth    Depth      HGL   Occurrence   Max Depth
  Node                 Type       Meters   Meters   Meters  days hr:min      Meters
  ---------------------------------------------------------------------------------
  HS02004478           JUNCTION     0.47     1.56    10.79     0  01:11        1.55
  HS02004479           JUNCTION     0.57     1.74    10.95     0  01:15        1.74
  HS02004480           JUNCTION     0.54     1.71    10.95     0  01:11        1.71
  HS02004770           JUNCTION     0.53     1.42    11.25     0  01:11        1.42
  HS02004777           JUNCTION     0.55     1.48    11.28     0  01:11        1.48
  HS02004785           JUNCTION     0.44     1.49    11.39     0  01:11        1.37
  HS02004788           JUNCTION     0.41     1.42    11.32     0  01:11        1.42
  HS02004792           JUNCTION     0.53     1.60    11.12     0  01:09        1.60
  HS02004799           JUNCTION     0.62     1.76    10.97     0  01:11        1.76
  HS02004802           JUNCTION     0.57     1.72    10.85     0  01:15        1.72
  HS02004807           JUNCTION     0.54     1.88    11.05     0  01:14        1.79
  HS02004817           JUNCTION     0.84     2.38    11.23     0  01:14        2.21
  HS02004824           JUNCTION     0.39     1.97    11.37     0  01:14        1.76
  HS02004830           JUNCTION     0.37     2.02    11.49     0  01:14        1.75
  HS02004837           JUNCTION     0.33     2.04    11.62     0  01:14        1.71
  HS02004842           JUNCTION     0.61     2.22    11.49     0  01:14        2.06
  HS02004848           JUNCTION     0.30     1.98    11.58     0  01:14        1.77
  HS02004852           JUNCTION     0.32     2.06    11.57     0  01:14        1.81
  HS02004856           JUNCTION     0.37     2.07    11.50     0  01:14        1.84
  HS02004862           JUNCTION     0.34     2.00    11.38     0  01:14        1.78
  HS02004870           JUNCTION     0.34     1.94    11.23     0  01:14        1.72
  HS02004876           JUNCTION     0.42     1.98    11.01     0  01:14        1.77
  HS02004881           JUNCTION     0.36     1.71    10.74     0  01:14        1.51
  HS02004901           JUNCTION     0.54     1.42    11.24     0  01:11        1.42
  WS02001211           JUNCTION     0.66     0.86     5.70     0  01:20        0.85
  WS02001212           JUNCTION     0.41     0.64     5.70     0  01:19        0.58
  WS02001213           JUNCTION     0.64     0.97     5.73     0  01:19        0.95
  WS02003059           JUNCTION     0.70     0.97     5.66     0  01:21        0.95
  WS02003060           JUNCTION     0.43     0.69     5.62     0  01:22        0.69
  WS02003066           JUNCTION     0.27     0.45     6.01     0  01:14        0.45
  WS02003067           JUNCTION     0.60     0.93     6.25     0  01:14        0.93
  WS02003069           JUNCTION     0.49     0.77     5.36     0  01:22        0.77
  WS02003072           JUNCTION     0.54     0.81     5.18     0  01:21        0.80
  WS02003073           JUNCTION     0.33     0.51     4.58     0  01:22        0.51
  WS02004138           JUNCTION     0.13     0.14     7.39     0  00:29        0.14
  WS02004139           JUNCTION     0.60     0.78     5.69     0  01:17        0.77
  WS02004401           JUNCTION     0.94     2.66     8.66     0  01:11        1.82
  WS02004402           JUNCTION     0.94     2.74     8.70     0  01:11        1.89
  WS02004403           JUNCTION     0.93     2.79     8.72     0  01:11        1.71
  WS02004404           JUNCTION     0.99     2.82     8.67     0  01:11        1.68
  WS02004405           JUNCTION     0.97     2.79     8.64     0  01:11        1.61
  WS02004406           JUNCTION     0.94     2.53     8.36     0  01:11        1.51
  WS02004407           JUNCTION     0.37     0.84     7.16     0  01:16        0.84
  WS02004409           JUNCTION     0.68     1.46     7.23     0  01:12        1.35
  WS02004410           JUNCTION     0.67     1.29     7.01     0  01:13        1.24
  WS02004411           JUNCTION     0.65     1.78     7.46     0  01:13        1.17
  WS02004412           JUNCTION     0.64     1.41     7.05     0  01:13        1.08
  WS02004413           JUNCTION     0.76     2.58     8.05     0  01:13        1.13
  WS02006109           JUNCTION     1.31     2.64     9.26     0  01:11        2.64
  WS02006110           JUNCTION     1.20     2.52     9.11     0  01:11        2.35
  WS02006111           JUNCTION     0.66     2.05     8.76     0  01:11        1.62
  WS02006112           JUNCTION     1.20     2.68     8.56     0  01:11        2.25
  WS02006113           JUNCTION     0.74     2.07     8.96     0  01:11        1.79
  WS02006115           JUNCTION     0.90     2.59     8.73     0  01:11        1.85
  WS02006116           JUNCTION     0.95     2.71     8.75     0  01:11        1.86
  WS02006228           JUNCTION     1.42     3.03     9.68     0  01:11        3.03
  WS02006229           JUNCTION     1.46     3.25     9.94     0  01:11        3.18
  WS02006230           JUNCTION     1.30     2.65     9.39     0  01:10        2.65
  WS02006231           JUNCTION     0.99     2.24     9.36     0  01:09        2.24
  WS02006232           JUNCTION     1.06     2.18     9.22     0  01:09        2.18
  WS02006234           JUNCTION     0.92     1.96     9.12     0  01:10        1.96
  WS02006235           JUNCTION     0.92     2.00     9.16     0  01:10        2.00
  WS02006238           JUNCTION     0.93     2.10     9.25     0  01:10        2.05
  WS02006239           JUNCTION     0.85     2.03     9.24     0  01:10        1.93
  WS02006240           JUNCTION     0.78     2.10     9.39     0  01:10        1.76
  WS02006242           JUNCTION     0.79     1.55     8.82     0  01:10        1.55
  WS02006243           JUNCTION     0.67     1.48     8.90     0  01:10        1.48
  WS02006245           JUNCTION     0.64     1.56     9.04     0  01:10        1.33
  WS02006247           JUNCTION     0.64     1.47     8.97     0  01:10        1.33
  WS02006248           JUNCTION     0.57     1.10     8.69     0  01:10        1.10
  WS02006249           JUNCTION     0.59     1.09     8.69     0  01:10        1.09
  WS02006251           JUNCTION     0.91     2.16     9.83     0  01:14        2.10
  WS02006252           JUNCTION     0.66     1.50     9.74     0  00:00        1.50
  WS02006253           JUNCTION     1.05     2.94    10.58     0  01:14        2.76
  WS02006256           JUNCTION     1.25     2.35     9.28     0  00:00        2.35
  WS02006280           JUNCTION     0.60     1.82    10.09     0  01:11        1.69
  WS02006284           JUNCTION     0.82     2.04    10.44     0  01:11        1.98
  WS02006287           JUNCTION     0.56     1.77    10.73     0  01:11        1.71
  WSF200               JUNCTION     0.28     0.57     5.80     0  01:14        0.57
  YS02001580           JUNCTION     0.25     1.05     9.59     0  01:12        0.91
  YS02001583           JUNCTION     0.29     0.98     9.48     0  01:12        0.84
  YS02001586           JUNCTION     0.42     1.13     9.30     0  01:12        1.13
  YS02001590           JUNCTION     0.55     1.38     9.25     0  01:12        1.38
  YS02001593           JUNCTION     0.48     1.46     9.32     0  01:10        1.46
  YS02001596           JUNCTION     0.62     1.80     9.22     0  01:10        1.80
  YS02001600           JUNCTION     0.72     1.87     9.00     0  01:10        1.87
  YS02001601           JUNCTION     0.91     2.06     8.90     0  01:10        2.06
  YS02001602           JUNCTION     0.80     1.87     8.77     0  01:12        1.87
  YS02001605           JUNCTION     0.75     1.78     8.68     0  01:12        1.78
  YS02001607           JUNCTION     0.71     1.67     8.52     0  01:15        1.67
  YS02001610           JUNCTION     0.76     1.68     8.48     0  01:12        1.68
  YS02001613           JUNCTION     0.72     1.70     8.54     0  01:15        1.70
  YS02001616           JUNCTION     0.65     1.61     8.52     0  01:12        1.61
  YS02001619           JUNCTION     0.62     1.61     8.54     0  01:12        1.61
  YS02001622           JUNCTION     0.61     1.62     8.52     0  01:15        1.62
  YS02001625           JUNCTION     0.87     1.78     8.38     0  01:12        1.78
  YS02001629           JUNCTION     0.77     1.85     8.40     0  01:12        1.85
  YS02001633           JUNCTION     0.83     2.08     8.53     0  01:33        2.08
  YS02001641           JUNCTION     0.78     2.10     8.54     0  01:33        2.10
  YS02001644           JUNCTION     0.76     1.92     8.35     0  01:19        1.92
  YS02001647           JUNCTION     0.52     1.90     8.51     0  01:33        1.90
  YS02001649           JUNCTION     0.57     2.05     8.44     0  01:33        2.05
  YS02001652           JUNCTION     0.44     2.16     8.76     0  01:33        2.16
  YS02001655           JUNCTION     0.34     2.20     9.05     0  01:33        2.20
  YS02001658           JUNCTION     0.24     1.95     9.09     0  01:33        1.95
  YS02001661           JUNCTION     0.19     0.67     8.08     0  01:43        0.66
  YS02001664           JUNCTION     0.09     0.25     8.18     0  01:26        0.25
  YS02001745           JUNCTION     0.08     0.40     7.92     0  01:44        0.33
  YS02001748           JUNCTION     0.21     0.83     7.91     0  01:44        0.83
  YS02001751           JUNCTION     0.28     1.15     8.03     0  01:46        1.00
  YS02001754           JUNCTION     0.38     1.35     7.95     0  01:46        1.28
  YS02001757           JUNCTION     0.57     1.95     8.21     0  01:33        1.95
  YS02001759           JUNCTION     0.51     1.90     8.26     0  01:33        1.90
  YS02001762           JUNCTION     0.50     1.83     8.23     0  01:33        1.83
  YS02001765           JUNCTION     0.47     1.75     8.20     0  01:37        1.75
  YS02001767           JUNCTION     0.47     1.76     8.25     0  01:37        1.76
  YS02001770           JUNCTION     0.48     1.95     8.44     0  01:19        1.95
  YS02001774           JUNCTION     0.54     1.91     8.33     0  01:19        1.91
  YS02001779           JUNCTION     0.36     1.53     8.21     0  01:37        1.50
  YS02001783           JUNCTION     0.43     1.27     7.41     0  01:15        1.21
  YS02001784           JUNCTION     0.42     1.14     7.21     0  01:15        1.11
  YS02001786           JUNCTION     0.34     0.90     6.93     0  01:15        0.86
  YS02001788           JUNCTION     0.25     0.62     6.59     0  01:23        0.62
  YS02001790           JUNCTION     0.29     0.72     6.37     0  01:27        0.72
  YS02001791           JUNCTION     0.18     0.44     5.91     0  01:30        0.43
  YS02001793           JUNCTION     0.09     0.29     5.12     0  01:20        0.29
  YS02001882           JUNCTION     0.53     1.83     8.55     0  01:14        1.83
  YS02001884           JUNCTION     0.62     1.93     8.55     0  01:14        1.93
  YS02001887           JUNCTION     0.70     1.97     8.51     0  01:14        1.97
  YS02001890           JUNCTION     0.72     1.81     8.32     0  01:14        1.81
  YS02001895           JUNCTION     0.50     1.61     8.35     0  01:19        1.55
  YS02001898           JUNCTION     0.51     1.62     8.36     0  01:19        1.56
  YS02001901           JUNCTION     0.62     1.80     8.41     0  01:14        1.80
  YS02001904           JUNCTION     0.60     1.85     8.48     0  01:14        1.85
  YS02001907           JUNCTION     0.91     1.96     8.25     0  01:14        1.96
  YS02001910           JUNCTION     0.72     2.10     8.61     0  01:14        2.10
  YS02001915           JUNCTION     0.53     1.91     8.62     0  01:16        1.78
  YS02001918           JUNCTION     0.35     1.81     8.88     0  01:16        1.37
  YS02001920           JUNCTION     0.42     2.01     9.02     0  01:16        1.45
  YS02001923           JUNCTION     0.27     1.87     9.13     0  01:16        1.22
  YS02001926           JUNCTION     0.26     1.83     9.27     0  01:16        1.04
  YS02001929           JUNCTION     0.16     1.57     9.27     0  01:16        0.80
  YS02006553           JUNCTION     0.91     2.19     8.47     0  01:14        2.19
  YS02006556           JUNCTION     0.88     2.39     8.70     0  01:14        2.39
  YS02006558           JUNCTION     0.92     2.45     8.71     0  01:14        2.45
  YS02006561           JUNCTION     0.27     0.96     7.62     0  01:15        0.87
  YS02163301           JUNCTION     0.78     2.03     8.55     0  01:55        2.03
  YS02163601           JUNCTION     0.85     2.08     8.48     0  01:33        2.08
  YS02164001           JUNCTION     0.77     2.10     8.56     0  01:33        2.10
  YSB1154              JUNCTION     0.71     2.01    11.07     0  01:11        2.00
  YSB1171              JUNCTION     0.85     1.95    10.85     0  01:11        1.95
  YSB1174              JUNCTION     0.66     1.95    11.06     0  01:19        1.95
  YSB6556              JUNCTION     0.61     1.80    10.97     0  01:11        1.80
  CC-1                 OUTFALL      0.00     0.00     0.00     0  00:00        0.00
  CC-2                 OUTFALL      0.00     0.00     0.00     0  00:00        0.00
  JK-1                 OUTFALL      0.00     0.00     0.00     0  00:00        0.00
  JK-2                 OUTFALL      0.00     0.00     0.00     0  00:00        0.00
  WSC                  OUTFALL      0.33     0.51     1.18     0  01:24        0.51
  CC-storage           STORAGE      0.81     1.44     6.94     0  02:21        1.44
  JK-storage           STORAGE      1.63     4.24     5.04     0  02:04        4.19
  XR-storage           STORAGE      7.84     9.26     7.26     0  08:00        9.26
  
  
  *******************
  Node Inflow Summary
  *******************
  
  -------------------------------------------------------------------------------------------------
                                  Maximum  Maximum                  Lateral       Total        Flow
                                  Lateral    Total  Time of Max      Inflow      Inflow     Balance
                                   Inflow   Inflow   Occurrence      Volume      Volume       Error
  Node                 Type           LPS      LPS  days hr:min    10^6 ltr    10^6 ltr     Percent
  -------------------------------------------------------------------------------------------------
  HS02004478           JUNCTION      0.00  2299.96     0  01:11           0        15.8      -0.009
  HS02004479           JUNCTION      0.00   394.00     0  01:17           0        2.01       0.041
  HS02004480           JUNCTION      0.00  2117.04     0  01:12           0        13.2       0.002
  HS02004770           JUNCTION    872.56   872.56     0  01:27        4.69        5.02       0.057
  HS02004777           JUNCTION      0.03   746.30     0  01:11    0.000864        3.61       0.149
  HS02004785           JUNCTION      0.15   749.36     0  01:11     0.00432        3.61       0.016
  HS02004788           JUNCTION    324.07   931.61     0  01:11        1.76        5.37      -0.000
  HS02004792           JUNCTION   1080.44  1767.63     0  01:28        6.12        11.5       0.000
  HS02004799           JUNCTION    197.21  1767.19     0  01:12       0.986        11.3       0.050
  HS02004802           JUNCTION      0.00   575.79     0  01:27           0        2.61       0.125
  HS02004807           JUNCTION    241.90   575.41     0  01:27        1.21        2.65       0.162
  HS02004817           JUNCTION      0.60   460.88     0  01:12      0.0173         1.5       1.097
  HS02004824           JUNCTION    384.97   657.44     0  01:12        2.15        2.53       0.023
  HS02004830           JUNCTION      0.15   667.35     0  01:12     0.00432        1.43       0.068
  HS02004837           JUNCTION    234.16   877.05     0  01:12        1.33        2.55       0.004
  HS02004842           JUNCTION      0.00   854.35     0  01:12           0        2.34       0.561
  HS02004848           JUNCTION    348.42  1050.42     0  01:12        2.17        4.39      -0.001
  HS02004852           JUNCTION      0.00  1010.40     0  01:13           0        4.29      -0.014
  HS02004856           JUNCTION     99.74  1032.83     0  01:13       0.498        4.79       0.024
  HS02004862           JUNCTION    153.05  1130.40     0  01:14       0.912         5.7       0.001
  HS02004870           JUNCTION    132.66  1120.49     0  01:14       0.662        6.36      -0.005
  HS02004876           JUNCTION    136.08  1186.13     0  01:14       0.686        7.05       0.012
  HS02004881           JUNCTION     70.25  1254.80     0  01:14       0.349        7.39       0.008
  HS02004901           JUNCTION    202.67   468.32     0  01:26        1.04        2.06       0.088
  WS02001211           JUNCTION      7.35   380.91     0  01:18       0.212        5.45       0.609
  WS02001212           JUNCTION      0.00   502.24     0  01:15           0        5.43       0.289
  WS02001213           JUNCTION      0.00   467.65     0  01:15           0        5.42       0.319
  WS02003059           JUNCTION      0.00   529.32     0  01:14           0        5.43       0.588
  WS02003060           JUNCTION     16.53  1562.04     0  01:14       0.476        17.1       0.086
  WS02003066           JUNCTION      0.00  1255.72     0  01:18           0        11.2       0.013
  WS02003067           JUNCTION      0.00  1250.02     0  01:26           0        11.2       0.039
  WS02003069           JUNCTION      0.32  1494.85     0  01:22     0.00922        17.1       0.092
  WS02003072           JUNCTION      0.00  1485.53     0  01:22           0          17       0.123
  WS02003073           JUNCTION      1.82  1483.59     0  01:23      0.0524        17.1       0.126
  WS02004138           JUNCTION      0.00   380.00     0  00:00           0        5.25       0.054
  WS02004139           JUNCTION      0.32   324.50     0  01:17     0.00924        5.26       0.508
  WS02004401           JUNCTION      0.00  1278.74     0  01:14           0        11.4       0.089
  WS02004402           JUNCTION      0.00  1278.17     0  01:14           0        11.3       0.094
  WS02004403           JUNCTION      0.00  1275.66     0  01:14           0        11.3       0.089
  WS02004404           JUNCTION      0.16  1276.27     0  01:13     0.00467        11.3       0.077
  WS02004405           JUNCTION      0.04  1283.94     0  01:11      0.0011        11.3       0.113
  WS02004406           JUNCTION      0.00  1292.23     0  01:11           0        11.3       0.186
  WS02004407           JUNCTION      0.00  1294.59     0  01:11           0        11.3       0.013
  WS02004409           JUNCTION      0.00  1365.47     0  01:12           0        11.3       0.031
  WS02004410           JUNCTION      0.00  1415.21     0  01:12           0        11.3       0.042
  WS02004411           JUNCTION      0.00  1319.61     0  01:12           0        11.3       0.054
  WS02004412           JUNCTION      0.00  1250.33     0  01:26           0        11.3       0.070
  WS02004413           JUNCTION      0.00  1249.99     0  01:26           0        11.3       0.121
  WS02006109           JUNCTION      1.23  1280.28     0  01:11      0.0354          11       0.079
  WS02006110           JUNCTION      0.00  1277.89     0  01:11           0        10.5       0.071
  WS02006111           JUNCTION      0.00  1281.53     0  01:10           0        10.5       0.007
  WS02006112           JUNCTION    165.87  1349.41     0  01:11       0.854        11.4       0.171
  WS02006113           JUNCTION      0.00  1277.31     0  01:11           0        10.5       0.020
  WS02006115           JUNCTION      0.00  1342.52     0  01:11           0        11.4       0.062
  WS02006116           JUNCTION      0.00  1304.35     0  01:11           0        11.4       0.004
  WS02006228           JUNCTION      0.00  1283.20     0  01:11           0          11       0.031
  WS02006229           JUNCTION      0.00  2223.37     0  01:27           0        17.1       0.044
  WS02006230           JUNCTION     10.28   984.42     0  01:27       0.296        7.49       0.124
  WS02006231           JUNCTION      0.00   668.37     0  01:09           0        4.36      -0.082
  WS02006232           JUNCTION      0.00   656.91     0  01:09           0        4.34       0.105
  WS02006234           JUNCTION      0.00   657.07     0  01:09           0        4.31       0.013
  WS02006235           JUNCTION      0.00   679.70     0  01:09           0           4      -0.041
  WS02006238           JUNCTION      0.00   669.95     0  01:09           0        3.87      -0.043
  WS02006239           JUNCTION      0.00   742.81     0  01:10           0        3.81      -0.100
  WS02006240           JUNCTION      0.00   926.55     0  01:10           0        3.78      -0.069
  WS02006242           JUNCTION      0.00   830.50     0  01:10           0        3.77      -0.005
  WS02006243           JUNCTION      0.00   947.94     0  01:10           0        2.84      -0.146
  WS02006245           JUNCTION      0.00   732.45     0  01:10           0        2.85       0.535
  WS02006247           JUNCTION      0.00   733.88     0  01:10           0        2.85      -0.010
  WS02006248           JUNCTION      0.00   802.08     0  01:10           0        3.32      -0.101
  WS02006249           JUNCTION      0.00  1331.47     0  01:14           0        10.4       0.124
  WS02006251           JUNCTION      0.08  1329.22     0  01:14     0.00222        10.5      -0.007
  WS02006252           JUNCTION      0.00   600.00     0  01:05           0        5.12      -0.548
  WS02006253           JUNCTION     17.00  1274.44     0  01:14      0.0842        7.54       0.015
  WS02006256           JUNCTION      0.00   450.00     0  00:20           0        1.29      -0.222
  WS02006280           JUNCTION      0.00  2221.18     0  01:27           0        15.8      -0.013
  WS02006284           JUNCTION      0.10  2220.57     0  01:26     0.00275        15.8       0.001
  WS02006287           JUNCTION      0.00  2221.77     0  01:27           0        15.8       0.045
  WSF200               JUNCTION      0.00  1269.74     0  01:14           0        11.2       0.007
  YS02001580           JUNCTION      0.00   125.91     0  01:12           0     0.00461      -2.730
  YS02001583           JUNCTION      0.00   176.31     0  01:11           0      0.0156      -5.626
  YS02001586           JUNCTION    455.12   455.13     0  01:44        2.86        2.87       0.064
  YS02001590           JUNCTION      0.00   318.82     0  02:27           0        2.47      -0.038
  YS02001593           JUNCTION      0.00   318.32     0  01:32           0        2.47       0.013
  YS02001596           JUNCTION      0.00   318.14     0  01:19           0        2.47      -0.016
  YS02001600           JUNCTION      0.00   318.63     0  01:19           0        2.47       0.017
  YS02001601           JUNCTION    736.18  1053.76     0  01:26        3.85        6.32       0.010
  YS02001602           JUNCTION      0.00   588.70     0  01:11           0        3.45       0.015
  YS02001605           JUNCTION      0.00   588.76     0  01:11           0        3.08       0.023
  YS02001607           JUNCTION      0.00   588.65     0  01:11           0        3.08       0.052
  YS02001610           JUNCTION      0.00   575.43     0  01:11           0        3.08       0.095
  YS02001613           JUNCTION      0.00   556.55     0  01:12           0        2.17       0.080
  YS02001616           JUNCTION      0.00   517.92     0  01:11           0        2.18       0.017
  YS02001619           JUNCTION    776.30   936.12     0  01:12         4.6        6.78      -0.002
  YS02001622           JUNCTION      0.00   952.86     0  01:12           0        6.77      -0.007
  YS02001625           JUNCTION      0.00   963.51     0  01:12           0        6.77       0.160
  YS02001629           JUNCTION      0.00   965.05     0  01:12           0        5.61       0.006
  YS02001633           JUNCTION    547.27  1351.34     0  01:15        2.83        8.45       0.042
  YS02001641           JUNCTION      0.00  1358.02     0  01:15           0        8.46       0.040
  YS02001644           JUNCTION    479.51  1752.47     0  01:15        2.46        10.9       0.028
  YS02001647           JUNCTION      0.00  1754.22     0  01:15           0        10.9      -0.007
  YS02001649           JUNCTION      0.00  2103.01     0  01:15           0        13.2       0.023
  YS02001652           JUNCTION      0.00   523.95     0  01:26           0        2.31       0.055
  YS02001655           JUNCTION      0.15   568.44     0  02:57     0.00443        2.31      -0.738
  YS02001658           JUNCTION      0.00   846.68     0  01:27           0         2.3      -1.036
  YS02001661           JUNCTION      0.00   444.38     0  01:51           0        2.29       0.136
  YS02001664           JUNCTION    440.86   440.86     0  01:27        2.27        2.27      -0.009
  YS02001745           JUNCTION    272.42   272.42     0  01:25        1.35        1.35       0.123
  YS02001748           JUNCTION      0.04   401.47     0  01:44      0.0013        1.35      -0.168
  YS02001751           JUNCTION      0.01   444.06     0  01:25    0.000317        1.36       0.005
  YS02001754           JUNCTION      0.26   348.74     0  01:26     0.00749        1.36      -0.252
  YS02001757           JUNCTION      0.00  3114.99     0  01:26           0        19.3       0.032
  YS02001759           JUNCTION    377.00   985.11     0  01:25        1.88        4.74      -0.022
  YS02001762           JUNCTION      0.00   601.96     0  01:25           0        2.86      -0.000
  YS02001765           JUNCTION      0.00   595.75     0  01:25           0        2.86       0.002
  YS02001767           JUNCTION      0.54   590.88     0  01:25      0.0154        2.86       0.006
  YS02001770           JUNCTION    564.61   578.26     0  01:25        2.84         2.9      -0.031
  YS02001774           JUNCTION      0.00   154.41     0  01:13           0      0.0915       1.083
  YS02001779           JUNCTION      0.01   114.35     0  01:17    0.000144      0.0315      -1.824
  YS02001783           JUNCTION      0.00  1147.77     0  01:27           0         7.9       0.004
  YS02001784           JUNCTION      1.06  1148.76     0  01:23      0.0305        7.93       0.006
  YS02001786           JUNCTION      0.06  1148.91     0  01:19     0.00162        7.93       0.009
  YS02001788           JUNCTION      0.07  1152.66     0  01:19     0.00204        7.94       0.004
  YS02001790           JUNCTION      0.15  1159.66     0  01:21     0.00446        7.94       0.016
  YS02001791           JUNCTION      0.00  1279.61     0  01:24           0        7.94      -0.038
  YS02001793           JUNCTION      0.00  1236.63     0  01:26           0        7.94       0.005
  YS02001882           JUNCTION      0.00    79.96     0  01:10           0      0.0143       4.922
  YS02001884           JUNCTION      0.00   146.69     0  01:10           0      0.0512       5.229
  YS02001887           JUNCTION    389.73   412.58     0  01:14        1.94        1.98       0.211
  YS02001890           JUNCTION      0.00   428.70     0  01:14           0        1.94       0.275
  YS02001895           JUNCTION      0.00   442.03     0  01:14           0        1.93       0.153
  YS02001898           JUNCTION      0.00   458.58     0  01:14           0        1.93      -0.036
  YS02001901           JUNCTION      0.00   481.33     0  01:14           0        1.94       0.185
  YS02001904           JUNCTION      0.00   485.17     0  01:14           0        1.95       0.138
  YS02001907           JUNCTION      0.00  1290.80     0  01:17           0        6.17       0.289
  YS02001910           JUNCTION      0.00   902.05     0  01:17           0        4.22       0.170
  YS02001915           JUNCTION    526.93   901.12     0  01:17        2.71        4.26       0.032
  YS02001918           JUNCTION      0.00   441.39     0  01:17           0        1.57       0.003
  YS02001920           JUNCTION      2.87   440.37     0  01:17      0.0827        1.55       0.063
  YS02001923           JUNCTION      0.04   409.03     0  01:15     0.00109        1.45      -0.016
  YS02001926           JUNCTION      0.05   600.29     0  01:15      0.0015        1.44      -0.089
  YS02001929           JUNCTION    268.16   359.08     0  01:16        1.43        1.43      -0.002
  YS02006553           JUNCTION      0.00   780.16     0  02:19           0        5.13       0.228
  YS02006556           JUNCTION      0.00   780.66     0  02:19           0        5.15       0.148
  YS02006558           JUNCTION    565.44  1149.67     0  01:19        2.85        7.96       0.043
  YS02006561           JUNCTION      0.00  1149.39     0  01:15           0         7.9       0.001
  YS02163301           JUNCTION      0.00   916.12     0  01:15           0        5.62       0.036
  YS02163601           JUNCTION      0.11  1353.09     0  01:15     0.00317        8.44       0.064
  YS02164001           JUNCTION      0.00  1354.11     0  01:15           0        8.44       0.038
  YSB1154              JUNCTION    233.50   233.50     0  01:26        1.18        1.18       0.114
  YSB1171              JUNCTION      0.00   416.01     0  01:25           0        2.09       0.301
  YSB1174              JUNCTION    182.10   182.10     0  01:25         0.9       0.901       0.126
  YSB6556              JUNCTION      0.00   233.77     0  01:25           0        1.18       0.091
  CC-1                 OUTFALL       0.00  1024.50     0  00:05           0        5.51       0.000
  CC-2                 OUTFALL       0.00  1024.50     0  00:05           0        9.54       0.000
  JK-1                 OUTFALL       0.00  1500.00     0  01:15           0       0.875       0.000
  JK-2                 OUTFALL       0.00  1500.00     0  01:15           0        5.89       0.000
  WSC                  OUTFALL       0.00  1482.17     0  01:24           0          17       0.000
  CC-storage           STORAGE       0.00  3120.10     0  01:25           0        21.5      -0.140
  JK-storage           STORAGE       0.00  1251.38     0  02:06           0        8.09      -0.196
  XR-storage           STORAGE     200.00   200.00     0  00:00        5.76        6.36       0.001
  
  
  **********************
  Node Surcharge Summary
  **********************
  
  Surcharging occurs when water rises above the top of the highest conduit.
  ---------------------------------------------------------------------
                                               Max. Height   Min. Depth
                                   Hours       Above Crown    Below Rim
  Node                 Type      Surcharged         Meters       Meters
  ---------------------------------------------------------------------
  HS02004478           JUNCTION        1.81          0.643        0.297
  HS02004479           JUNCTION        1.90          0.943        0.107
  HS02004480           JUNCTION        1.92          1.003        0.097
  HS02004770           JUNCTION        1.87          0.720        0.000
  HS02004777           JUNCTION        1.87          0.780        0.000
  HS02004785           JUNCTION        1.83          0.790        0.000
  HS02004788           JUNCTION        1.82          0.720        0.000
  HS02004792           JUNCTION        1.90          0.900        0.000
  HS02004799           JUNCTION        1.96          1.060        0.000
  HS02004802           JUNCTION        1.92          1.009        0.201
  HS02004807           JUNCTION        1.90          1.181        0.039
  HS02004817           JUNCTION        2.11          1.683        0.057
  HS02004824           JUNCTION        1.82          1.268        0.042
  HS02004830           JUNCTION        1.80          1.325        0.005
  HS02004837           JUNCTION        1.39          1.340        0.000
  HS02004842           JUNCTION        1.85          1.520        0.000
  HS02004848           JUNCTION        1.29          1.280        0.090
  HS02004852           JUNCTION        1.49          1.363        0.057
  HS02004856           JUNCTION        1.39          1.300        0.000
  HS02004862           JUNCTION        1.77          1.300        0.000
  HS02004870           JUNCTION        1.79          1.238        0.162
  HS02004876           JUNCTION        1.85          1.284        0.276
  HS02004881           JUNCTION        1.84          1.010        0.440
  HS02004901           JUNCTION        1.87          0.720        0.000
  WS02004401           JUNCTION        2.28          1.660        0.000
  WS02004402           JUNCTION        2.32          1.740        0.000
  WS02004403           JUNCTION        2.32          1.791        0.239
  WS02004404           JUNCTION        2.40          1.817        0.963
  WS02004405           JUNCTION        2.39          1.789        1.011
  WS02004406           JUNCTION        2.38          1.532        0.918
  WS02004409           JUNCTION        1.96          0.457        1.903
  WS02004410           JUNCTION        1.94          0.293        2.247
  WS02004411           JUNCTION        1.93          0.778        1.752
  WS02004412           JUNCTION        1.90          0.413        1.897
  WS02004413           JUNCTION        2.09          1.581        0.619
  WS02006109           JUNCTION        2.56          1.820        0.000
  WS02006110           JUNCTION        2.45          1.612        0.238
  WS02006111           JUNCTION        2.05          1.239        0.631
  WS02006112           JUNCTION        2.49          1.680        0.000
  WS02006113           JUNCTION        2.09          1.267        0.663
  WS02006115           JUNCTION        2.19          1.584        0.666
  WS02006116           JUNCTION        2.22          1.650        0.640
  WS02006228           JUNCTION        2.56          2.200        0.000
  WS02006229           JUNCTION        1.97          1.070        0.000
  WS02006230           JUNCTION        2.39          1.570        0.000
  WS02006231           JUNCTION        2.40          1.530        0.000
  WS02006232           JUNCTION        2.46          1.480        0.000
  WS02006234           JUNCTION        2.40          1.240        0.000
  WS02006235           JUNCTION        2.41          1.290        0.000
  WS02006238           JUNCTION        2.42          1.383        0.047
  WS02006239           JUNCTION        2.39          1.290        0.000
  WS02006240           JUNCTION        2.38          1.390        0.000
  WS02006242           JUNCTION        2.39          0.820        0.000
  WS02006243           JUNCTION        2.37          0.770        0.000
  WS02006245           JUNCTION        2.37          0.850        0.000
  WS02006247           JUNCTION        2.37          0.760        0.000
  WS02006248           JUNCTION        2.37          0.380        0.000
  WS02006249           JUNCTION        2.37          0.390        0.000
  WS02006251           JUNCTION        2.28          1.131        0.049
  WS02006252           JUNCTION        2.63          1.100        0.000
  WS02006253           JUNCTION        2.31          1.897        0.583
  WS02006256           JUNCTION        7.28          2.050        0.000
  WS02006280           JUNCTION        1.94          0.768        0.012
  WS02006284           JUNCTION        1.90          0.758        0.042
  WS02006287           JUNCTION        1.86          0.773        0.117
  YS02001580           JUNCTION        1.83          0.450        0.000
  YS02001583           JUNCTION        1.83          0.340        0.160
  YS02001586           JUNCTION        1.91          0.510        0.000
  YS02001590           JUNCTION        1.96          0.735        0.015
  YS02001593           JUNCTION        1.96          0.840        0.000
  YS02001596           JUNCTION        2.02          1.070        0.000
  YS02001600           JUNCTION        2.08          1.190        0.000
  YS02001601           JUNCTION        2.25          1.440        0.000
  YS02001602           JUNCTION        2.19          1.270        0.000
  YS02001605           JUNCTION        2.16          1.180        0.000
  YS02001607           JUNCTION        1.90          0.668        0.012
  YS02001610           JUNCTION        1.92          0.680        0.000
  YS02001613           JUNCTION        1.90          0.700        0.000
  YS02001616           JUNCTION        1.88          0.610        0.000
  YS02001619           JUNCTION        1.87          0.610        0.000
  YS02001622           JUNCTION        1.86          0.620        0.000
  YS02001625           JUNCTION        1.97          0.780        0.000
  YS02001629           JUNCTION        1.84          0.470        0.000
  YS02001633           JUNCTION        1.97          1.060        0.000
  YS02001641           JUNCTION        1.92          1.100        0.000
  YS02001644           JUNCTION        1.91          0.920        0.000
  YS02001647           JUNCTION        1.77          0.900        0.000
  YS02001649           JUNCTION        1.82          1.050        0.000
  YS02001652           JUNCTION        1.67          1.130        0.000
  YS02001655           JUNCTION        0.70          1.200        0.000
  YS02001658           JUNCTION        0.04          0.952        0.348
  YS02001751           JUNCTION        0.01          0.154        1.046
  YS02001754           JUNCTION        1.09          0.295        0.855
  YS02001757           JUNCTION        1.82          0.947        0.263
  YS02001759           JUNCTION        1.78          0.895        0.315
  YS02001762           JUNCTION        1.77          0.830        0.320
  YS02001765           JUNCTION        1.75          0.746        0.354
  YS02001767           JUNCTION        1.73          0.764        0.266
  YS02001770           JUNCTION        1.73          0.920        0.000
  YS02001774           JUNCTION        1.76          0.910        0.140
  YS02001779           JUNCTION        1.12          0.528        0.152
  YS02001783           JUNCTION        1.80          0.469        1.131
  YS02001784           JUNCTION        1.57          0.344        1.146
  YS02001786           JUNCTION        1.14          0.100        1.330
  YS02001882           JUNCTION        1.29          0.830        0.000
  YS02001884           JUNCTION        1.35          0.870        0.000
  YS02001887           JUNCTION        1.78          0.920        0.030
  YS02001890           JUNCTION        1.80          0.760        0.000
  YS02001895           JUNCTION        1.26          0.606        0.144
  YS02001898           JUNCTION        1.24          0.595        0.145
  YS02001901           JUNCTION        1.53          0.800        0.070
  YS02001904           JUNCTION        1.43          0.850        0.000
  YS02001907           JUNCTION        1.94          0.950        0.000
  YS02001910           JUNCTION        1.83          1.100        0.000
  YS02001915           JUNCTION        1.30          0.906        0.094
  YS02001918           JUNCTION        1.12          0.810        0.000
  YS02001920           JUNCTION        1.14          1.008        0.132
  YS02001923           JUNCTION        0.01          0.659        0.161
  YS02001926           JUNCTION        0.01          0.828        0.072
  YS02001929           JUNCTION        0.01          0.575        0.205
  YS02006553           JUNCTION        1.95          1.190        0.000
  YS02006556           JUNCTION        1.89          1.350        0.000
  YS02006558           JUNCTION        1.88          1.345        0.055
  YS02006561           JUNCTION        1.07          0.165        0.985
  YS02163301           JUNCTION        1.96          1.030        0.000
  YS02163601           JUNCTION        1.99          1.080        0.000
  YS02164001           JUNCTION        1.93          1.100        0.000
  YSB1154              JUNCTION        2.00          1.311        0.089
  YSB1171              JUNCTION        2.00          1.100        0.000
  YSB1174              JUNCTION        1.98          1.250        0.000
  YSB6556              JUNCTION        1.95          1.100        0.000
  
  
  *********************
  Node Flooding Summary
  *********************
  
  Flooding refers to all water that overflows a node, whether it ponds or not.
  --------------------------------------------------------------------------
                                                             Total   Maximum
                                 Maximum   Time of Max       Flood    Ponded
                        Hours       Rate    Occurrence      Volume     Depth
  Node                 Flooded       LPS   days hr:min    10^6 ltr    Meters
  --------------------------------------------------------------------------
  HS02004770              0.95    244.02      0  01:27       0.398     0.000
  HS02004777              0.01     21.34      0  01:11       0.000     0.000
  HS02004785              0.01     71.39      0  01:11       0.000     0.000
  HS02004788              0.01    173.07      0  01:11       0.001     0.000
  HS02004792              1.07    593.86      0  01:27       1.218     0.000
  HS02004799              0.01     51.35      0  01:11       0.000     0.000
  HS02004837              0.01    102.24      0  01:14       0.000     0.000
  HS02004842              0.01    123.33      0  01:14       0.001     0.000
  HS02004856              0.01     95.62      0  01:14       0.000     0.000
  HS02004862              0.01     53.57      0  01:14       0.000     0.000
  HS02004901              1.27    468.32      0  01:26       1.722     0.000
  WS02004401              0.01     73.23      0  01:11       0.000     0.000
  WS02004402              0.01     44.00      0  01:11       0.000     0.000
  WS02006109              1.19    164.62      0  01:27       0.462     0.000
  WS02006112              0.01    129.82      0  01:11       0.001     0.000
  WS02006228              0.01      9.49      0  01:11       0.000     0.000
  WS02006229              0.01     25.61      0  01:11       0.000     0.000
  WS02006230              1.91    531.94      0  01:27       2.873     0.000
  WS02006231              0.01    133.99      0  01:09       0.000     0.000
  WS02006232              0.52    206.45      0  01:09       0.001     0.000
  WS02006234              1.93    129.06      0  02:57       0.590     0.000
  WS02006235              0.01     83.62      0  01:10       0.000     0.000
  WS02006239              0.01    505.83      0  01:10       0.001     0.000
  WS02006240              0.01    782.84      0  01:10       0.002     0.000
  WS02006242              1.97    795.77      0  01:10       0.934     0.000
  WS02006243              0.01    919.91      0  01:10       0.020     0.000
  WS02006245              0.01    163.39      0  01:10       0.000     0.000
  WS02006247              0.01    160.84      0  01:10       0.000     0.000
  WS02006248              2.05    369.61      0  01:14       2.418     0.000
  WS02006249              2.28   1261.02      0  01:27       9.044     0.000
  WS02006252              1.91    548.35      0  01:14       2.197     0.000
  WS02006256              1.03    437.32      0  04:15       0.897     0.000
  YS02001580              0.01    102.82      0  01:12       0.000     0.000
  YS02001586              1.32    137.72      0  01:43       0.393     0.000
  YS02001593              0.01     32.79      0  01:10       0.000     0.000
  YS02001596              0.01      6.79      0  01:10       0.000     0.000
  YS02001600              0.01      2.44      0  01:10       0.000     0.000
  YS02001601              1.86    655.91      0  01:27       2.864     0.000
  YS02001602              1.78     62.10      0  01:24       0.370     0.000
  YS02001605              0.01      4.02      0  01:12       0.000     0.000
  YS02001610              1.53    291.95      0  01:31       0.913     0.000
  YS02001613              0.01      0.76      0  01:15       0.000     0.000
  YS02001616              0.01     36.32      0  01:12       0.000     0.000
  YS02001619              0.01     67.63      0  01:12       0.000     0.000
  YS02001622              0.01      0.61      0  01:15       0.000     0.000
  YS02001625              1.31    493.68      0  01:29       1.145     0.000
  YS02001629              0.07    252.50      0  01:12       0.002     0.000
  YS02001633              0.01      4.16      0  01:55       0.000     0.000
  YS02001641              0.01      4.35      0  01:55       0.000     0.000
  YS02001644              0.01     50.34      0  01:33       0.000     0.000
  YS02001647              0.01      4.20      0  01:33       0.000     0.000
  YS02001649              0.01     21.36      0  01:33       0.000     0.000
  YS02001652              0.01     47.90      0  01:33       0.000     0.000
  YS02001655              0.01    160.47      0  02:00       0.000     0.000
  YS02001770              0.01      1.30      0  01:19       0.000     0.000
  YS02001882              0.01      2.85      0  01:14       0.000     0.000
  YS02001884              0.01      2.73      0  01:14       0.000     0.000
  YS02001890              0.01     40.70      0  01:19       0.001     0.000
  YS02001904              0.01     15.89      0  01:14       0.000     0.000
  YS02001907              1.03    671.14      0  01:17       1.041     0.000
  YS02001910              0.01      6.89      0  01:14       0.000     0.000
  YS02001918              0.01     21.36      0  01:16       0.000     0.000
  YS02006553              0.01      9.17      0  01:14       0.000     0.000
  YS02006556              0.01     14.56      0  01:14       0.000     0.000
  YS02163301              0.01      2.42      0  01:55       0.000     0.000
  YS02163601              0.01      6.61      0  01:55       0.000     0.000
  YS02164001              0.01     11.35      0  01:55       0.000     0.000
  YSB1171                 0.37    137.08      0  01:26       0.084     0.000
  YSB1174                 0.01      0.23      0  01:19       0.000     0.000
  YSB6556                 0.01     18.31      0  01:11       0.000     0.000
  
  
  **********************
  Storage Volume Summary
  **********************
  
  --------------------------------------------------------------------------------------------------
                         Average     Avg  Evap Exfil       Maximum     Max    Time of Max    Maximum
                          Volume    Pcnt  Pcnt  Pcnt        Volume    Pcnt     Occurrence    Outflow
  Storage Unit           1000 m3    Full  Loss  Loss       1000 m3    Full    days hr:min        LPS
  --------------------------------------------------------------------------------------------------
  CC-storage               2.262      35     0     0         4.005      62       0  02:21    2549.00
  JK-storage               0.082      28     0     0         0.213      73       0  02:04    3450.00
  XR-storage               0.941      65     0     0         1.111      77       0  08:00     380.00
  
  
  ***********************
  Outfall Loading Summary
  ***********************
  
  -----------------------------------------------------------
                         Flow       Avg       Max       Total
                         Freq      Flow      Flow      Volume
  Outfall Node           Pcnt       LPS       LPS    10^6 ltr
  -----------------------------------------------------------
  CC-1                  42.22    771.88   1024.50       5.511
  CC-2                  54.40   1019.82   1024.50       9.536
  JK-1                   3.79   1170.68   1500.00       0.875
  JK-2                  19.40   1495.51   1500.00       5.895
  WSC                   99.95    776.85   1482.17      17.048
  -----------------------------------------------------------
  System                43.95   5234.74   1482.17      38.865
  
  
  ********************
  Link Flow Summary
  ********************
  
  -----------------------------------------------------------------------------
                                 Maximum  Time of Max   Maximum    Max/    Max/
                                  |Flow|   Occurrence   |Veloc|    Full    Full
  Link                 Type          LPS  days hr:min     m/sec    Flow   Depth
  -----------------------------------------------------------------------------
  1                    CONDUIT   1482.17     0  01:24      3.68    0.52    0.51
  HS02004478WS02006287 CONDUIT   2221.77     0  01:27      2.93    0.62    1.00
  HS02004479HS02004480 CONDUIT    396.88     0  01:14      0.65    0.38    1.00
  HS02004480HS02004478 CONDUIT   2123.00     0  01:12      3.03    8.94    1.00
  HS02004770HS02004777 CONDUIT    746.27     0  01:11      1.07    1.36    1.00
  HS02004777HS02004785 CONDUIT    749.21     0  01:11      1.16    0.92    1.00
  HS02004785HS02004788 CONDUIT    715.04     0  01:11      1.39    5.39    1.00
  HS02004788HS02004792 CONDUIT    892.35     0  01:11      1.48    0.59    1.00
  HS02004792HS02004799 CONDUIT   1605.92     0  01:11      2.29    0.98    1.00
  HS02004799HS02004480 CONDUIT   1766.76     0  01:12      2.52    2.23    1.00
  HS02004802HS02004478 CONDUIT    575.82     0  01:27      0.82    0.51    1.00
  HS02004807HS02004802 CONDUIT    575.79     0  01:27      0.82    1.10    1.00
  HS02004817HS02004807 CONDUIT    460.28     0  01:12      0.66    0.27    1.00
  HS02004817HS02004824 CONDUIT    460.72     0  01:12      0.66    0.21    1.00
  HS02004824HS02004830 CONDUIT    667.20     0  01:12      1.03    0.87    1.00
  HS02004830HS02004837 CONDUIT    687.78     0  01:12      1.08    0.69    1.00
  HS02004837HS02004842 CONDUIT    854.35     0  01:12      1.22    0.51    1.00
  HS02004842HS02004848 CONDUIT    854.32     0  01:12      1.37    0.50    1.00
  HS02004848HS02004852 CONDUIT   1010.40     0  01:13      1.65    1.14    1.00
  HS02004852HS02004856 CONDUIT    945.33     0  01:13      1.49    1.08    1.00
  HS02004856HS02004862 CONDUIT   1025.16     0  01:14      1.66    1.02    1.00
  HS02004862HS02004870 CONDUIT   1001.85     0  01:14      1.53    1.08    1.00
  HS02004870HS02004876 CONDUIT   1070.54     0  01:14      1.53    0.71    1.00
  HS02004876HS02004881 CONDUIT   1189.19     0  01:14      2.00   12.65    1.00
  HS02004881HS02006253 CONDUIT   1257.81     0  01:14      2.96    0.25    1.00
  HS02004901HS02004770 CONDUIT    265.79     0  01:58      0.38    1.00    1.00
  WS02001211WS02001212 CONDUIT    316.22     0  01:20      0.54    0.24    0.72
  WS02001212WS02001213 CONDUIT    345.03     0  01:20      1.04    0.53    0.61
  WS02001213WS02003059 CONDUIT    315.70     0  01:15      0.47    0.52    0.92
  WS02003059WS02003060 CONDUIT    433.24     0  01:14      0.78    0.28    0.82
  WS02003060WS02003069 CONDUIT   1494.53     0  01:22      2.33    0.59    0.60
  WS02003066WSF200     CONDUIT   1269.74     0  01:14      3.73    0.21    0.40
  WS02003067WS02003066 CONDUIT   1255.72     0  01:18      2.00    0.40    0.57
  WS02003069WS02003072 CONDUIT   1485.53     0  01:22      1.89    0.72    0.66
  WS02003072WS02003073 CONDUIT   1481.77     0  01:23      2.04    3.20    0.61
  WS02004138WS02004139 CONDUIT    190.82     0  00:29      2.16    0.04    0.43
  WS02004139WS02001211 CONDUIT    373.56     0  01:18      0.54    0.47    0.62
  WS02004401WS02004402 CONDUIT   1278.17     0  01:14      1.63    1.53    1.00
  WS02004402WS02004403 CONDUIT   1275.66     0  01:14      1.62    1.83    1.00
  WS02004403WS02004404 CONDUIT   1276.11     0  01:13      1.62    0.92    1.00
  WS02004404WS02004405 CONDUIT   1283.90     0  01:11      1.63   12.58    1.00
  WS02004405WS02004406 CONDUIT   1292.23     0  01:11      1.65    2.55    1.00
  WS02004406WS02004407 CONDUIT   1294.59     0  01:11      2.22    0.58    0.92
  WS02004407WS02004409 CONDUIT   1365.47     0  01:12      2.63    0.48    0.92
  WS02004409WS02004410 CONDUIT   1415.21     0  01:12      1.98    1.83    1.00
  WS02004410WS02004411 CONDUIT   1319.61     0  01:12      1.96    1.80    1.00
  WS02004411WS02004412 CONDUIT   1250.33     0  01:26      1.79    1.78    1.00
  WS02004412WS02004413 CONDUIT   1249.99     0  01:26      1.72    0.84    1.00
  WS02004413WS02003067 CONDUIT   1250.02     0  01:26      1.95    0.54    0.76
  WS02006109WS02006110 CONDUIT   1277.89     0  01:11      2.54    2.46    1.00
  WS02006110WS02006113 CONDUIT   1277.31     0  01:11      2.54    1.16    1.00
  WS02006111WS02006112 CONDUIT   1227.53     0  01:11      2.44    0.58    1.00
  WS02006112WS02006115 CONDUIT   1342.52     0  01:11      1.71    0.79    1.00
  WS02006113WS02006111 CONDUIT   1281.53     0  01:10      2.81    1.54    1.00
  WS02006115WS02006116 CONDUIT   1304.35     0  01:11      1.66    1.67    1.00
  WS02006116WS02004401 CONDUIT   1278.74     0  01:14      1.63    1.76    1.00
  WS02006228WS02006109 CONDUIT   1279.05     0  01:11      2.54    5.59    1.00
  WS02006229WS02006228 CONDUIT   1283.20     0  01:11      2.55    4.25    1.00
  WS02006230WS02006229 CONDUIT    974.14     0  01:27      2.53   21.68    1.00
  WS02006231WS02006230 CONDUIT    668.37     0  01:09      1.74   10.14    1.00
  WS02006232WS02006231 CONDUIT    656.91     0  01:09      1.71    1.38    1.00
  WS02006234WS02006232 CONDUIT    657.07     0  01:09      2.00    1.33    1.00
  WS02006235WS02006234 CONDUIT    679.68     0  01:09      1.79    7.17    1.00
  WS02006238WS02006235 CONDUIT    669.95     0  01:09      2.05    1.50    1.00
  WS02006239WS02006238 CONDUIT    668.92     0  01:10      2.07    2.14    1.00
  WS02006240WS02006239 CONDUIT    676.33     0  01:10      1.80    2.13    1.00
  WS02006242WS02006240 CONDUIT    507.54     0  01:10      1.32    2.02    1.00
  WS02006243WS02006242 CONDUIT    376.75     0  03:31      1.34    0.80    1.00
  WS02006245WS02006243 CONDUIT    713.14     0  01:10      1.89    2.11    1.00
  WS02006247WS02006245 CONDUIT    732.45     0  01:10      1.93    5.81    1.00
  WS02006248WS02006247 CONDUIT    733.88     0  01:10      1.91    1.60    1.00
  WS02006249WS02006248 CONDUIT    802.08     0  01:10      2.09    4.39    1.00
  WS02006251WS02006249 CONDUIT   1331.47     0  01:14      3.46    3.84    1.00
  WS02006252WS02006251 CONDUIT    607.61     0  01:10     25.27    2.23    1.00
  WS02006253WS02006251 CONDUIT   1277.50     0  01:14      3.32    3.83    1.00
  WS02006256WS02006235 CONDUIT    288.93     0  00:00      4.23    3.06    1.00
  WS02006280WS02006229 CONDUIT   2223.37     0  01:27      5.31    0.47    1.00
  WS02006284WS02006280 CONDUIT   2221.18     0  01:27      3.33    0.93    1.00
  WS02006287WS02006284 CONDUIT   2220.47     0  01:26      3.09    1.03    1.00
  WSF200WS02003060     CONDUIT   1444.12     0  01:14      3.22    0.32    0.50
  YS02001580YS02001583 CONDUIT    125.91     0  01:12      0.71    0.49    1.00
  YS02001583YS02001586 CONDUIT    156.66     0  01:11      0.70    0.24    1.00
  YS02001586YS02001590 CONDUIT    318.82     0  02:27      1.30    0.56    1.00
  YS02001590YS02001593 CONDUIT    318.32     0  01:32      1.13    2.00    1.00
  YS02001593YS02001596 CONDUIT    318.14     0  01:19      1.76    0.50    1.00
  YS02001596YS02001600 CONDUIT    318.63     0  01:19      1.27    0.62    1.00
  YS02001600YS02001601 CONDUIT    318.39     0  01:19      1.13    0.55    1.00
  YS02001601YS02001602 CONDUIT    588.70     0  01:11      2.08    2.13    1.00
  YS02001602YS02001605 CONDUIT    588.76     0  01:11      2.08   12.46    1.00
  YS02001605YS02001607 CONDUIT    588.65     0  01:11      2.08    3.23    1.00
  YS02001607YS02001610 CONDUIT    575.43     0  01:11      0.84    0.55    1.00
  YS02001610YS02001613 CONDUIT    556.55     0  01:12      0.78    0.64    1.00
  YS02001613YS02001616 CONDUIT    517.92     0  01:11      0.83    0.44    1.00
  YS02001616YS02001619 CONDUIT    502.68     0  01:12      0.88    0.87    1.00
  YS02001619YS02001622 CONDUIT    952.86     0  01:12      1.82    1.40    1.00
  YS02001622YS02001625 CONDUIT    963.51     0  01:12      1.23    0.51    1.00
  YS02001625YS02001629 CONDUIT    965.05     0  01:12      1.23    0.46    1.00
  YS02001629YS02163301 CONDUIT    916.12     0  01:15      1.17    1.13    1.00
  YS02001633YS02163601 CONDUIT   1352.98     0  01:15      1.72    1.42    1.00
  YS02001641YS02001644 CONDUIT   1358.13     0  01:15      1.73    4.39    1.00
  YS02001644YS02001647 CONDUIT   1754.22     0  01:15      2.28    1.03    1.00
  YS02001647YS02001649 CONDUIT   1784.28     0  01:15      2.35    0.94    1.00
  YS02001649YS02001757 CONDUIT   2055.51     0  01:15      2.63    1.25    1.00
  YS02001652YS02001649 CONDUIT    526.46     0  01:26      1.36    0.26    1.00
  YS02001655YS02001652 CONDUIT    523.95     0  01:26      1.85    0.25    1.00
  YS02001658YS02001655 CONDUIT    568.29     0  02:57      2.02    0.24    1.00
  YS02001661YS02001658 CONDUIT    846.68     0  01:27      2.27    0.33    0.71
  YS02001664YS02001661 CONDUIT    443.10     0  01:26      2.14    0.14    0.46
  YS02001745YS02001748 CONDUIT    401.42     0  01:44      2.11    0.15    0.53
  YS02001748YS02001751 CONDUIT    444.05     0  01:25      1.74    0.22    0.91
  YS02001751YS02001754 CONDUIT    348.48     0  01:26      1.70    0.17    1.00
  YS02001754YS02001757 CONDUIT    346.30     0  01:26      1.07    0.14    1.00
  YS02001757CaochengTiaoxuchi CONDUIT   3120.10     0  01:25      4.21    1.35    1.00
  YS02001759YS02001757 CONDUIT    989.88     0  01:25      1.33    0.70    1.00
  YS02001762YS02001759 CONDUIT    608.15     0  01:25      0.77    0.70    1.00
  YS02001765YS02001762 CONDUIT    601.96     0  01:25      0.85    0.56    1.00
  YS02001767YS02001765 CONDUIT    595.75     0  01:25      0.96    0.75    1.00
  YS02001770YS02001767 CONDUIT    590.35     0  01:25      0.96    2.34    1.00
  YS02001774YS02001770 CONDUIT    154.41     0  01:13      0.73    0.10    1.00
  YS02001779YS02001774 CONDUIT    114.34     0  01:17      0.22    0.06    1.00
  YS02001783YS02001784 CONDUIT   1147.70     0  01:23      2.28    1.58    1.00
  YS02001784YS02001785 CONDUIT   1148.86     0  01:19      2.29    2.67    1.00
  YS02001786YS02001788 CONDUIT   1152.59     0  01:19      2.46    2.22    0.89
  YS02001788YS02001790 CONDUIT   1159.50     0  01:21      2.70    0.85    0.83
  YS02001790YS02001791 CONDUIT   1279.61     0  01:24      3.43    1.39    0.70
  YS02001791YS02001793 CONDUIT   1236.63     0  01:26      6.77    0.53    0.44
  YS02001793JiankangQianchi CONDUIT   1251.38     0  02:06      2.50    0.10    0.65
  YS02001882YS02001884 CONDUIT     79.96     0  01:10      0.42    0.09    1.00
  YS02001884YS02001887 CONDUIT    146.69     0  01:10      0.37    0.20    1.00
  YS02001887YS02001890 CONDUIT    428.70     0  01:14      0.55    0.73    1.00
  YS02001890YS02001895 CONDUIT    442.03     0  01:14      0.56    0.21    1.00
  YS02001895YS02001898 CONDUIT    458.58     0  01:14      0.72    0.80    1.00
  YS02001898YS02001901 CONDUIT    481.33     0  01:14      0.61    0.31    1.00
  YS02001901YS02001904 CONDUIT    485.17     0  01:14      0.65    0.75    1.00
  YS02001904YS02001907 CONDUIT    488.93     0  01:14      0.62    0.17    1.00
  YS02001907YS02006553 CONDUIT    780.16     0  02:19      0.87    0.92    1.00
  YS02001910YS02001907 CONDUIT    902.52     0  01:17      1.15    0.51    1.00
  YS02001915YS02001910 CONDUIT    902.05     0  01:17      1.15    0.45    1.00
  YS02001918YS02001915 CONDUIT    443.02     0  01:17      0.56    0.24    1.00
  YS02001920YS02001918 CONDUIT    441.39     0  01:17      0.72    0.43    1.00
  YS02001923YS02001920 CONDUIT    437.50     0  01:17      0.83    0.20    1.00
  YS02001926YS02001923 CONDUIT    397.88     0  01:17      0.94    0.57    1.00
  YS02001929YS02001926 CONDUIT    393.12     0  01:17      1.07    0.19    1.00
  YS02006553YS02006556 CONDUIT    780.66     0  02:19      0.99    0.67    1.00
  YS02006556YS02006558 CONDUIT    781.85     0  02:18      1.00    0.62    1.00
  YS02006558YS02006561 CONDUIT   1149.39     0  01:15      4.09    2.54    1.00
  YS02006561YS02001783 CONDUIT   1147.77     0  01:27      2.30    0.59    1.00
  YS02163301YS02001633 CONDUIT    918.14     0  01:15      1.17    0.86    1.00
  YS02163601YS02164001 CONDUIT   1354.11     0  01:15      1.72    1.20    1.00
  YS02164001YS02001641 CONDUIT   1358.02     0  01:15      1.73    1.85    1.00
  YSB1154YSB6556       CONDUIT    233.77     0  01:25      0.61    0.42    1.00
  YSB1171HS02004479    CONDUIT    394.00     0  01:17      0.78    0.26    1.00
  YSB1174YSB1171       CONDUIT    182.48     0  01:25      0.47    0.28    1.00
  YSB6556YSB1171       CONDUIT    234.06     0  01:26      0.61    0.24    1.00
  CC-R1                PUMP      1024.50     0  00:05              1.50
  CC-R2                PUMP      1024.50     0  00:05              1.50
  CC-S1                PUMP       300.00     0  01:05              1.50
  CC-S2                PUMP       300.00     0  00:05              1.50
  JK-R1                PUMP      1500.00     0  01:15              1.50
  JK-R2                PUMP      1500.00     0  01:15              1.50
  JK-S                 PUMP       450.00     0  00:20              1.50
  XR-1                 PUMP        95.00     0  00:00              1.00
  XR-2                 PUMP        95.00     0  00:00              1.00
  XR-3                 PUMP        95.00     0  00:00              1.00
  XR-4                 PUMP        95.00     0  00:00              1.00
  
  
  ***************************
  Flow Classification Summary
  ***************************
  
  -------------------------------------------------------------------------------------
                      Adjusted    ---------- Fraction of Time in Flow Class ---------- 
                       /Actual         Up    Down  Sub   Sup   Up    Down  Norm  Inlet 
  Conduit               Length    Dry  Dry   Dry   Crit  Crit  Crit  Crit  Ltd   Ctrl  
  -------------------------------------------------------------------------------------
  1                       1.00   0.00  0.00  0.00  0.00  1.00  0.00  0.00  0.48  0.00
  HS02004478WS02006287    1.00   0.09  0.00  0.00  0.73  0.18  0.00  0.00  0.55  0.00
  HS02004479HS02004480    1.00   0.05  0.00  0.00  0.95  0.00  0.00  0.00  0.09  0.00
  HS02004480HS02004478    1.00   0.09  0.00  0.00  0.68  0.00  0.00  0.23  0.00  0.00
  HS02004770HS02004777    1.00   0.00  0.09  0.00  0.91  0.00  0.00  0.00  0.00  0.00
  HS02004777HS02004785    1.00   0.00  0.00  0.00  1.00  0.00  0.00  0.00  0.09  0.00
  HS02004785HS02004788    1.00   0.00  0.00  0.00  1.00  0.00  0.00  0.00  0.00  0.00
  HS02004788HS02004792    1.00   0.00  0.00  0.00  0.99  0.01  0.00  0.00  0.74  0.00
  HS02004792HS02004799    1.00   0.00  0.00  0.00  0.98  0.02  0.00  0.00  0.73  0.00
  HS02004799HS02004480    1.00   0.00  0.05  0.00  0.90  0.00  0.04  0.00  0.00  0.00
  HS02004802HS02004478    1.00   0.09  0.00  0.00  0.91  0.00  0.00  0.00  0.01  0.00
  HS02004807HS02004802    1.00   0.09  0.00  0.00  0.91  0.00  0.00  0.00  0.00  0.00
  HS02004817HS02004807    1.00   0.00  0.09  0.00  0.91  0.00  0.00  0.00  0.01  0.00
  HS02004817HS02004824    1.00   0.00  0.00  0.00  1.00  0.00  0.00  0.00  0.73  0.00
  HS02004824HS02004830    1.00   0.00  0.00  0.00  1.00  0.00  0.00  0.00  0.00  0.00
  HS02004830HS02004837    1.00   0.00  0.00  0.00  1.00  0.00  0.00  0.00  0.73  0.00
  HS02004837HS02004842    1.00   0.00  0.00  0.00  1.00  0.00  0.00  0.00  0.11  0.00
  HS02004842HS02004848    1.00   0.00  0.09  0.00  0.91  0.00  0.00  0.00  0.50  0.00
  HS02004848HS02004852    1.00   0.09  0.00  0.00  0.91  0.00  0.00  0.00  0.61  0.00
  HS02004852HS02004856    1.00   0.09  0.00  0.00  0.91  0.00  0.00  0.00  0.60  0.00
  HS02004856HS02004862    1.00   0.00  0.09  0.00  0.91  0.00  0.00  0.00  0.62  0.00
  HS02004862HS02004870    1.00   0.00  0.00  0.00  1.00  0.00  0.00  0.00  0.01  0.00
  HS02004870HS02004876    1.00   0.00  0.00  0.00  0.99  0.01  0.00  0.00  0.70  0.00
  HS02004876HS02004881    1.00   0.04  0.00  0.00  0.87  0.10  0.00  0.00  0.00  0.00
  HS02004881HS02006253    1.00   0.03  0.03  0.00  0.48  0.03  0.00  0.43  0.07  0.00
  HS02004901HS02004770    1.00   0.09  0.00  0.00  0.91  0.00  0.00  0.00  0.00  0.00
  WS02001211WS02001212    1.00   0.00  0.04  0.00  0.96  0.00  0.00  0.00  0.00  0.00
  WS02001212WS02001213    1.00   0.04  0.00  0.00  0.55  0.00  0.41  0.00  0.00  0.00
  WS02001213WS02003059    1.00   0.00  0.00  0.00  0.99  0.00  0.00  0.00  0.00  0.00
  WS02003059WS02003060    1.00   0.00  0.00  0.00  1.00  0.00  0.00  0.00  0.03  0.00
  WS02003060WS02003069    1.00   0.00  0.00  0.00  0.99  0.01  0.00  0.00  0.45  0.00
  WS02003066WSF200        1.00   0.07  0.00  0.00  0.00  0.93  0.00  0.00  0.61  0.00
  WS02003067WS02003066    1.00   0.07  0.00  0.00  0.93  0.00  0.00  0.00  0.00  0.00
  WS02003069WS02003072    1.00   0.00  0.00  0.00  1.00  0.00  0.00  0.00  0.61  0.00
  WS02003072WS02003073    1.00   0.00  0.00  0.00  0.00  0.00  0.00  1.00  0.00  0.00
  WS02004138WS02004139    1.00   0.00  0.01  0.00  0.96  0.01  0.00  0.03  0.98  0.00
  WS02004139WS02001211    1.00   0.00  0.00  0.00  0.99  0.00  0.00  0.00  0.00  0.00
  WS02004401WS02004402    1.00   0.04  0.00  0.00  0.96  0.00  0.00  0.00  0.00  0.00
  WS02004402WS02004403    1.00   0.04  0.00  0.00  0.96  0.00  0.00  0.00  0.00  0.00
  WS02004403WS02004404    1.00   0.00  0.04  0.00  0.96  0.00  0.00  0.00  0.00  0.00
  WS02004404WS02004405    1.00   0.00  0.00  0.00  1.00  0.00  0.00  0.00  0.01  0.00
  WS02004405WS02004406    1.00   0.00  0.00  0.00  1.00  0.00  0.00  0.00  0.00  0.00
  WS02004406WS02004407    1.00   0.00  0.05  0.00  0.95  0.00  0.00  0.00  0.00  0.00
  WS02004407WS02004409    1.00   0.05  0.00  0.00  0.94  0.01  0.00  0.00  0.71  0.00
  WS02004409WS02004410    1.00   0.05  0.00  0.00  0.95  0.00  0.00  0.00  0.00  0.00
  WS02004410WS02004411    1.00   0.05  0.00  0.00  0.95  0.00  0.00  0.00  0.00  0.00
  WS02004411WS02004412    1.00   0.06  0.00  0.00  0.94  0.00  0.00  0.00  0.00  0.00
  WS02004412WS02004413    1.00   0.06  0.00  0.00  0.94  0.00  0.00  0.00  0.01  0.00
  WS02004413WS02003067    1.00   0.06  0.01  0.00  0.00  0.00  0.93  0.00  0.00  0.00
  WS02006109WS02006110    1.00   0.00  0.01  0.00  0.97  0.00  0.03  0.00  0.00  0.00
  WS02006110WS02006113    1.00   0.01  0.03  0.00  0.97  0.00  0.00  0.00  0.00  0.00
  WS02006111WS02006112    1.00   0.04  0.00  0.00  0.96  0.00  0.00  0.00  0.68  0.00
  WS02006112WS02006115    1.00   0.04  0.00  0.00  0.96  0.00  0.00  0.00  0.00  0.00
  WS02006113WS02006111    1.00   0.03  0.00  0.00  0.40  0.56  0.00  0.00  0.07  0.00
  WS02006115WS02006116    1.00   0.04  0.00  0.00  0.95  0.00  0.00  0.01  0.00  0.00
  WS02006116WS02004401    1.00   0.04  0.00  0.00  0.96  0.00  0.00  0.00  0.00  0.00
  WS02006228WS02006109    1.00   0.00  0.00  0.00  1.00  0.00  0.00  0.00  0.00  0.00
  WS02006229WS02006228    1.00   0.00  0.00  0.00  0.99  0.00  0.00  0.01  0.00  0.00
  WS02006230WS02006229    1.00   0.00  0.00  0.00  0.97  0.00  0.00  0.03  0.03  0.00
  WS02006231WS02006230    1.00   0.00  0.00  0.00  0.55  0.00  0.45  0.00  0.00  0.00
  WS02006232WS02006231    1.00   0.00  0.00  0.00  0.99  0.00  0.00  0.00  0.00  0.00
  WS02006234WS02006232    1.00   0.00  0.00  0.00  1.00  0.00  0.00  0.00  0.02  0.00
  WS02006235WS02006234    1.00   0.00  0.00  0.00  0.89  0.00  0.11  0.00  0.00  0.00
  WS02006238WS02006235    1.00   0.00  0.00  0.00  1.00  0.00  0.00  0.00  0.00  0.00
  WS02006239WS02006238    1.00   0.00  0.00  0.00  1.00  0.00  0.00  0.00  0.14  0.00
  WS02006240WS02006239    1.00   0.00  0.00  0.00  0.76  0.00  0.00  0.23  0.02  0.00
  WS02006242WS02006240    1.00   0.00  0.00  0.00  0.99  0.00  0.01  0.00  0.00  0.00
  WS02006243WS02006242    1.00   0.00  0.00  0.00  0.99  0.00  0.00  0.01  0.61  0.00
  WS02006245WS02006243    1.00   0.00  0.00  0.00  0.90  0.00  0.00  0.09  0.00  0.00
  WS02006247WS02006245    1.00   0.00  0.00  0.00  0.98  0.00  0.00  0.02  0.00  0.00
  WS02006248WS02006247    1.00   0.00  0.00  0.00  0.99  0.00  0.00  0.01  0.52  0.00
  WS02006249WS02006248    1.00   0.00  0.00  0.00  0.66  0.00  0.34  0.00  0.00  0.00
  WS02006251WS02006249    1.00   0.00  0.00  0.00  0.99  0.01  0.00  0.00  0.54  0.00
  WS02006252WS02006251    1.00   0.18  0.23  0.00  0.44  0.00  0.14  0.00  0.00  0.00
  WS02006253WS02006251    1.00   0.00  0.00  0.00  0.98  0.00  0.02  0.00  0.01  0.00
  WS02006256WS02006235    1.00   0.00  0.00  0.00  0.98  0.01  0.00  0.00  0.00  0.00
  WS02006280WS02006229    1.00   0.09  0.00  0.00  0.36  0.05  0.00  0.50  0.01  0.00
  WS02006284WS02006280    1.00   0.09  0.00  0.00  0.35  0.00  0.00  0.55  0.00  0.00
  WS02006287WS02006284    1.00   0.08  0.01  0.00  0.61  0.28  0.00  0.01  0.61  0.00
  WSF200WS02003060        1.00   0.00  0.07  0.00  0.42  0.51  0.00  0.00  0.58  0.00
  YS02001580YS02001583    1.00   0.11  0.35  0.00  0.53  0.00  0.00  0.00  0.61  0.00
  YS02001583YS02001586    1.00   0.23  0.17  0.00  0.60  0.00  0.00  0.00  0.61  0.00
  YS02001586YS02001590    1.00   0.09  0.00  0.00  0.69  0.02  0.00  0.20  0.27  0.00
  YS02001590YS02001593    1.00   0.09  0.00  0.00  0.37  0.00  0.54  0.00  0.00  0.00
  YS02001593YS02001596    1.00   0.09  0.00  0.00  0.38  0.01  0.00  0.53  0.01  0.00
  YS02001596YS02001600    1.00   0.09  0.00  0.00  0.42  0.03  0.00  0.46  0.02  0.00
  YS02001600YS02001601    1.00   0.09  0.00  0.00  0.91  0.00  0.00  0.00  0.54  0.00
  YS02001601YS02001602    1.00   0.09  0.00  0.00  0.91  0.00  0.00  0.00  0.00  0.00
  YS02001602YS02001605    1.00   0.09  0.00  0.00  0.91  0.00  0.00  0.00  0.00  0.00
  YS02001605YS02001607    1.00   0.09  0.00  0.00  0.91  0.00  0.00  0.00  0.00  0.00
  YS02001607YS02001610    1.00   0.09  0.00  0.00  0.91  0.00  0.00  0.00  0.00  0.00
  YS02001610YS02001613    1.00   0.09  0.00  0.00  0.91  0.00  0.00  0.00  0.00  0.00
  YS02001613YS02001616    1.00   0.09  0.00  0.00  0.91  0.00  0.00  0.00  0.00  0.00
  YS02001616YS02001619    1.00   0.09  0.00  0.00  0.91  0.00  0.00  0.00  0.00  0.00
  YS02001619YS02001622    1.00   0.09  0.00  0.00  0.90  0.01  0.00  0.00  0.26  0.00
  YS02001622YS02001625    1.00   0.09  0.00  0.00  0.91  0.00  0.00  0.00  0.01  0.00
  YS02001625YS02001629    1.00   0.09  0.01  0.00  0.38  0.00  0.52  0.00  0.00  0.00
  YS02001629YS02163301    1.00   0.09  0.00  0.00  0.91  0.00  0.00  0.00  0.00  0.00
  YS02001633YS02163601    1.00   0.00  0.01  0.00  0.99  0.00  0.00  0.00  0.12  0.00
  YS02001641YS02001644    1.00   0.00  0.00  0.00  1.00  0.00  0.00  0.00  0.00  0.00
  YS02001644YS02001647    1.00   0.00  0.09  0.00  0.91  0.00  0.00  0.00  0.00  0.00
  YS02001647YS02001649    1.00   0.00  0.09  0.00  0.56  0.35  0.00  0.00  0.53  0.00
  YS02001649YS02001757    1.00   0.00  0.00  0.00  0.64  0.36  0.00  0.00  0.41  0.00
  YS02001652YS02001649    1.00   0.00  0.00  0.00  0.99  0.01  0.00  0.00  0.67  0.00
  YS02001655YS02001652    1.00   0.00  0.00  0.00  0.42  0.02  0.00  0.55  0.04  0.00
  YS02001658YS02001655    1.00   0.00  0.09  0.00  0.69  0.22  0.00  0.00  0.62  0.00
  YS02001661YS02001658    1.00   0.09  0.00  0.00  0.53  0.37  0.00  0.00  0.65  0.00
  YS02001664YS02001661    1.00   0.09  0.00  0.00  0.66  0.25  0.00  0.00  0.86  0.00
  YS02001745YS02001748    1.00   0.00  0.00  0.00  0.31  0.01  0.00  0.68  0.13  0.00
  YS02001748YS02001751    1.00   0.00  0.00  0.00  0.83  0.17  0.00  0.00  0.73  0.00
  YS02001751YS02001754    1.00   0.00  0.00  0.00  0.37  0.00  0.00  0.63  0.01  0.00
  YS02001754YS02001757    1.00   0.00  0.00  0.00  1.00  0.00  0.00  0.00  0.73  0.00
  YS02001757CaochengTiaoxuchi    1.00   0.00  0.00  0.00  0.95  0.05  0.00  0.00  0.73  0.00
  YS02001759YS02001757    1.00   0.00  0.00  0.00  1.00  0.00  0.00  0.00  0.57  0.00
  YS02001762YS02001759    1.00   0.00  0.00  0.00  1.00  0.00  0.00  0.00  0.02  0.00
  YS02001765YS02001762    1.00   0.00  0.00  0.00  1.00  0.00  0.00  0.00  0.67  0.00
  YS02001767YS02001765    1.00   0.00  0.00  0.00  1.00  0.00  0.00  0.00  0.00  0.00
  YS02001770YS02001767    1.00   0.00  0.00  0.00  1.00  0.00  0.00  0.00  0.00  0.00
  YS02001774YS02001770    1.00   0.00  0.09  0.00  0.83  0.00  0.08  0.00  0.00  0.00
  YS02001779YS02001774    1.00   0.00  0.00  0.00  1.00  0.00  0.00  0.00  0.71  0.00
  YS02001783YS02001784    1.00   0.00  0.10  0.00  0.90  0.00  0.00  0.00  0.53  0.00
  YS02001784YS02001785    1.00   0.00  0.00  0.00  1.00  0.00  0.00  0.00  0.12  0.00
  YS02001786YS02001788    1.00   0.00  0.00  0.00  0.71  0.29  0.00  0.00  0.00  0.00
  YS02001788YS02001790    1.00   0.00  0.00  0.00  0.21  0.79  0.00  0.00  0.73  0.00
  YS02001790YS02001791    1.00   0.00  0.00  0.00  0.03  0.97  0.00  0.00  0.11  0.00
  YS02001791YS02001793    1.00   0.00  0.00  0.00  0.00  1.00  0.00  0.00  0.02  0.00
  YS02001793JiankangQianchi    1.00   0.00  0.00  0.00  0.87  0.13  0.00  0.00  0.95  0.00
  YS02001882YS02001884    1.00   0.09  0.00  0.00  0.91  0.00  0.00  0.00  0.00  0.00
  YS02001884YS02001887    1.00   0.06  0.02  0.00  0.91  0.00  0.00  0.00  0.00  0.00
  YS02001887YS02001890    1.00   0.00  0.00  0.00  0.95  0.00  0.04  0.00  0.00  0.00
  YS02001890YS02001895    1.00   0.00  0.09  0.00  0.91  0.00  0.00  0.00  0.00  0.00
  YS02001895YS02001898    1.00   0.09  0.00  0.00  0.90  0.00  0.01  0.00  0.00  0.00
  YS02001898YS02001901    1.00   0.09  0.00  0.00  0.90  0.00  0.00  0.00  0.00  0.00
  YS02001901YS02001904    1.00   0.09  0.00  0.00  0.91  0.00  0.00  0.00  0.00  0.00
  YS02001904YS02001907    1.00   0.00  0.09  0.00  0.91  0.00  0.00  0.00  0.00  0.00
  YS02001907YS02006553    1.00   0.00  0.04  0.00  0.96  0.00  0.00  0.00  0.00  0.00
  YS02001910YS02001907    1.00   0.00  0.00  0.00  0.95  0.00  0.00  0.04  0.10  0.00
  YS02001915YS02001910    1.00   0.00  0.00  0.00  0.97  0.03  0.00  0.00  0.11  0.00
  YS02001918YS02001915    1.00   0.00  0.00  0.00  0.96  0.04  0.00  0.00  0.62  0.00
  YS02001920YS02001918    1.00   0.00  0.00  0.00  1.00  0.00  0.00  0.00  0.00  0.00
  YS02001923YS02001920    1.00   0.00  0.00  0.00  1.00  0.00  0.00  0.00  0.77  0.00
  YS02001926YS02001923    1.00   0.00  0.07  0.00  0.22  0.00  0.71  0.00  0.00  0.00
  YS02001929YS02001926    1.00   0.00  0.09  0.00  0.91  0.00  0.00  0.00  0.72  0.00
  YS02006553YS02006556    1.00   0.02  0.00  0.00  0.98  0.00  0.00  0.00  0.03  0.00
  YS02006556YS02006558    1.00   0.00  0.00  0.00  1.00  0.00  0.00  0.00  0.00  0.00
  YS02006558YS02006561    1.00   0.10  0.00  0.00  0.20  0.71  0.00  0.00  0.12  0.00
  YS02006561YS02001783    1.00   0.10  0.00  0.00  0.34  0.57  0.00  0.00  0.60  0.00
  YS02163301YS02001633    1.00   0.00  0.09  0.00  0.91  0.00  0.00  0.00  0.00  0.00
  YS02163601YS02164001    1.00   0.00  0.07  0.00  0.93  0.00  0.00  0.00  0.00  0.00
  YS02164001YS02001641    1.00   0.01  0.07  0.00  0.93  0.00  0.00  0.00  0.05  0.00
  YSB1154YSB6556          1.00   0.09  0.00  0.00  0.91  0.00  0.00  0.00  0.01  0.00
  YSB1171HS02004479       1.00   0.05  0.00  0.00  0.94  0.00  0.00  0.01  0.08  0.00
  YSB1174YSB1171          1.00   0.06  0.02  0.00  0.92  0.00  0.00  0.00  0.00  0.00
  YSB6556YSB1171          1.00   0.05  0.04  0.00  0.91  0.00  0.00  0.00  0.00  0.00
  
  
  *************************
  Conduit Surcharge Summary
  *************************
  
  ----------------------------------------------------------------------------
                                                           Hours        Hours 
                         --------- Hours Full --------   Above Full   Capacity
  Conduit                Both Ends  Upstream  Dnstream   Normal Flow   Limited
  ----------------------------------------------------------------------------
  HS02004478WS02006287        1.81      1.81      1.89      0.01         0.01
  HS02004479HS02004480        1.93      1.93      1.94      0.01         0.01
  HS02004480HS02004478        1.86      1.92      1.86      2.30         1.86
  HS02004770HS02004777        1.86      1.87      1.87      0.70         0.53
  HS02004777HS02004785        1.83      1.83      1.87      0.01         0.01
  HS02004785HS02004788        1.82      1.83      1.82      2.15         1.81
  HS02004788HS02004792        1.82      1.82      1.90      0.01         0.01
  HS02004792HS02004799        1.90      1.90      1.96      0.01         0.01
  HS02004799HS02004480        1.92      1.92      1.96      1.99         0.01
  HS02004802HS02004478        1.87      1.87      1.93      0.01         0.01
  HS02004807HS02004802        1.90      1.90      1.92      0.15         0.21
  HS02004817HS02004807        1.90      1.90      2.11      0.01         0.01
  HS02004817HS02004824        1.82      1.82      2.11      0.01         0.01
  HS02004824HS02004830        1.79      1.79      1.82      0.01         0.01
  HS02004830HS02004837        1.39      1.39      1.79      0.01         0.01
  HS02004837HS02004842        1.39      1.39      1.85      0.01         0.01
  HS02004842HS02004848        1.29      1.29      1.85      0.01         0.01
  HS02004848HS02004852        1.29      1.29      1.49      0.02         0.01
  HS02004852HS02004856        1.49      1.49      1.76      0.01         0.01
  HS02004856HS02004862        1.38      1.38      1.77      0.01         0.01
  HS02004862HS02004870        1.77      1.77      1.79      0.01         0.03
  HS02004870HS02004876        1.79      1.79      1.85      0.01         0.01
  HS02004876HS02004881        1.84      1.85      1.84      2.21         1.84
  HS02004881HS02006253        1.84      1.84      2.31      0.01         0.01
  HS02004901HS02004770        1.87      1.87      1.87      0.37         0.05
  WS02003072WS02003073        0.01      0.01      0.01      2.80         0.01
  WS02004401WS02004402        2.28      2.28      2.32      2.15         2.12
  WS02004402WS02004403        2.32      2.32      2.32      2.30         2.27
  WS02004403WS02004404        2.32      2.32      2.40      0.01         0.04
  WS02004404WS02004405        2.39      2.40      2.39      3.36         2.39
  WS02004405WS02004406        2.38      2.39      2.38      2.47         2.38
  WS02004406WS02004407        0.01      0.01      2.38      0.01         0.01
  WS02004407WS02004409        0.01      0.01      1.96      0.01         0.01
  WS02004409WS02004410        1.94      1.96      1.94      2.19         1.94
  WS02004410WS02004411        1.93      1.94      1.93      2.27         1.93
  WS02004411WS02004412        1.89      1.93      1.89      2.29         1.89
  WS02004412WS02004413        1.89      1.89      2.09      0.01         0.01
  WS02004413WS02003067        0.01      0.01      2.09      0.01         0.01
  WS02006109WS02006110        2.45      2.45      2.57      2.46         0.01
  WS02006110WS02006113        2.09      2.09      2.57      1.38         0.01
  WS02006111WS02006112        2.05      2.05      2.69      0.01         0.01
  WS02006112WS02006115        2.19      2.19      2.49      0.01         0.01
  WS02006113WS02006111        2.07      2.09      2.07      2.14         2.07
  WS02006115WS02006116        2.21      2.22      2.22      2.22         2.18
  WS02006116WS02004401        2.28      2.28      2.28      2.30         2.25
  WS02006228WS02006109        2.56      2.57      2.56      2.80         2.56
  WS02006229WS02006228        2.56      2.57      2.56      2.67         2.56
  WS02006230WS02006229        2.57      2.59      2.58      3.74         0.53
  WS02006231WS02006230        2.38      2.39      2.40      3.18         2.02
  WS02006232WS02006231        2.40      2.40      2.46      0.03         0.43
  WS02006234WS02006232        2.42      2.42      2.46      0.02         0.02
  WS02006235WS02006234        2.39      2.40      2.40      2.89         1.99
  WS02006238WS02006235        2.41      2.41      2.42      0.01         0.80
  WS02006239WS02006238        2.41      2.41      2.42      2.16         0.18
  WS02006240WS02006239        2.38      2.39      2.39      2.15         0.17
  WS02006242WS02006240        2.38      2.38      2.39      2.32         1.96
  WS02006243WS02006242        2.37      2.37      2.39      0.01         0.01
  WS02006245WS02006243        2.37      2.37      2.37      0.19         0.14
  WS02006247WS02006245        2.37      2.37      2.37      2.58         0.36
  WS02006248WS02006247        2.37      2.37      2.37      0.01         0.02
  WS02006249WS02006248        2.37      2.37      2.37      0.50         0.01
  WS02006251WS02006249        2.37      2.37      2.37      2.42         2.32
  WS02006252WS02006251        2.40      2.42      2.61      1.55         0.01
  WS02006253WS02006251        2.37      2.37      2.37      2.01         0.01
  WS02006256WS02006235        2.92      2.98      7.25      0.18         0.01
  WS02006280WS02006229        1.94      1.94      1.97      0.01         0.01
  WS02006284WS02006280        1.90      1.90      1.94      0.01         0.01
  WS02006287WS02006284        1.86      1.86      1.91      0.57         0.56
  YS02001580YS02001583        1.83      1.83      1.86      0.01         0.01
  YS02001583YS02001586        1.83      1.83      1.91      0.01         0.01
  YS02001586YS02001590        1.92      1.92      1.96      0.01         0.01
  YS02001590YS02001593        1.96      1.96      1.97      1.98         0.01
  YS02001593YS02001596        1.97      1.97      2.02      0.01         0.01
  YS02001596YS02001600        2.04      2.04      2.08      0.01         0.01
  YS02001600YS02001601        2.11      2.11      2.25      0.01         0.01
  YS02001601YS02001602        2.19      2.19      2.28      2.10         0.01
  YS02001602YS02001605        2.16      2.16      2.19      2.80         0.01
  YS02001605YS02001607        2.15      2.16      2.15      2.22         2.15
  YS02001607YS02001610        1.90      1.90      1.92      0.01         0.01
  YS02001610YS02001613        1.90      1.90      1.92      0.01         0.01
  YS02001613YS02001616        1.88      1.88      1.90      0.01         0.01
  YS02001616YS02001619        1.87      1.87      1.88      0.01         0.02
  YS02001619YS02001622        1.86      1.87      1.86      1.98         1.75
  YS02001622YS02001625        1.86      1.86      1.97      0.01         0.01
  YS02001625YS02001629        1.84      1.84      1.97      0.01         0.01
  YS02001629YS02163301        1.96      1.96      1.96      0.62         0.53
  YS02001633YS02163601        1.97      1.97      1.99      1.44         1.47
  YS02001641YS02001644        1.91      1.92      1.91      2.29         1.90
  YS02001644YS02001647        1.77      1.77      1.91      0.04         0.01
  YS02001647YS02001649        1.77      1.77      1.82      0.01         0.01
  YS02001649YS02001757        1.81      1.82      1.82      0.95         0.88
  YS02001652YS02001649        1.72      1.72      1.82      0.01         0.01
  YS02001655YS02001652        0.69      0.69      1.67      0.01         0.01
  YS02001658YS02001655        0.04      0.04      0.69      0.01         0.01
  YS02001661YS02001658        0.01      0.01      0.04      0.01         0.01
  YS02001748YS02001751        0.01      0.01      0.01      0.01         0.01
  YS02001751YS02001754        0.01      0.01      1.09      0.01         0.01
  YS02001754YS02001757        1.37      1.37      1.82      0.01         0.01
  YS02001757CaochengTiaoxuchi        1.63      1.82      1.87      1.14         0.90
  YS02001759YS02001757        1.78      1.78      1.82      0.01         0.01
  YS02001762YS02001759        1.77      1.77      1.78      0.01         0.02
  YS02001765YS02001762        1.75      1.75      1.77      0.01         0.01
  YS02001767YS02001765        1.73      1.73      1.75      0.01         0.02
  YS02001770YS02001767        1.73      1.74      1.73      1.87         1.29
  YS02001774YS02001770        1.73      1.73      1.76      0.01         0.01
  YS02001779YS02001774        1.11      1.11      1.76      0.01         0.01
  YS02001783YS02001784        1.57      1.80      1.57      1.90         1.57
  YS02001784YS02001785        1.14      1.57      1.14      1.99         1.14
  YS02001786YS02001788        0.01      1.14      0.01      1.96         0.01
  YS02001790YS02001791        0.01      0.01      0.01      1.51         0.01
  YS02001793JiankangQianchi        0.01      0.01      7.31      0.01         0.01
  YS02001882YS02001884        1.29      1.29      1.35      0.01         0.01
  YS02001884YS02001887        1.53      1.53      1.78      0.01         0.01
  YS02001887YS02001890        1.80      1.80      1.81      0.01         0.01
  YS02001890YS02001895        1.26      1.26      1.83      0.01         0.01
  YS02001895YS02001898        1.24      1.24      1.26      0.01         0.01
  YS02001898YS02001901        1.27      1.27      1.53      0.01         0.01
  YS02001901YS02001904        1.43      1.43      1.53      0.01         0.01
  YS02001904YS02001907        1.43      1.43      1.95      0.01         0.01
  YS02001907YS02006553        2.00      2.00      2.02      0.01         0.01
  YS02001910YS02001907        1.83      1.83      1.94      0.01         0.01
  YS02001915YS02001910        1.30      1.30      1.83      0.01         0.01
  YS02001918YS02001915        1.12      1.12      1.30      0.01         0.01
  YS02001920YS02001918        1.12      1.12      1.14      0.01         0.01
  YS02001923YS02001920        1.04      1.04      1.14      0.01         0.01
  YS02001926YS02001923        0.01      0.01      0.01      0.01         0.01
  YS02001929YS02001926        0.01      0.01      0.01      0.01         0.01
  YS02006553YS02006556        1.89      1.89      1.95      0.01         0.01
  YS02006556YS02006558        1.92      1.92      1.95      0.01         0.01
  YS02006558YS02006561        1.18      1.88      1.18      1.98         1.18
  YS02006561YS02001783        1.07      1.07      1.80      0.01         0.01
  YS02163301YS02001633        1.96      1.96      1.98      0.01         0.01
  YS02163601YS02164001        1.93      1.93      1.99      0.10         0.01
  YS02164001YS02001641        1.92      1.93      1.92      2.02         1.87
  YSB1154YSB6556              1.95      1.95      2.00      0.01         0.01
  YSB1171HS02004479           1.90      1.90      2.00      0.01         0.01
  YSB1174YSB1171              1.98      1.98      2.06      0.01         0.01
  YSB6556YSB1171              1.95      1.95      2.11      0.01         0.01
  
  
  ***************
  Pumping Summary
  ***************
  
  ---------------------------------------------------------------------------------------------------------
                                                  Min       Avg       Max     Total     Power    % Time Off
                        Percent   Number of      Flow      Flow      Flow    Volume     Usage    Pump Curve
  Pump                 Utilized   Start-Ups       LPS       LPS       LPS  10^6 ltr     Kw-hr    Low   High
  ---------------------------------------------------------------------------------------------------------
  CC-R1                   25.97           4      0.00    771.88   1024.50     5.512    100.82    0.0   16.1
  CC-R2                   32.71          34      0.00   1019.82   1024.50     9.550    173.04    0.0   28.7
  CC-S1                   30.43          34      0.00    289.78    300.00     2.517     20.01    0.0    0.0
  CC-S2                   30.48          23      0.00    298.45    300.00     2.603     20.47    0.0    0.0
  JK-R1                    2.70          15      0.00   1170.68   1500.00     0.877      9.38    0.0    0.0
  JK-R2                   13.71          39      0.00   1495.51   1500.00     5.898     50.56    0.0    0.0
  JK-S                    12.87          28      0.00    358.83    450.00     1.284     21.06    0.0    0.0
  XR-1                    97.91           2      0.00     95.00     95.00     2.679      9.61    0.0    0.0
  XR-2                    93.94           2      0.00     95.00     95.00     2.570      8.77    0.0    0.0
  XR-3                     0.00           1      0.00     95.00     95.00     0.000      0.00    0.0    0.0
  XR-4                     0.00           1      0.00     95.00     95.00     0.000      0.00    0.0    0.0
  

  Analysis begun on:  Tue Jul 18 18:46:37 2023
  Analysis ended on:  Tue Jul 18 18:46:45 2023
  Total elapsed time: 00:00:08