
  OWA STORM WATER MANAGEMENT MODEL - VERSION v5.1.14 (OWA 2022-07-31)
  --------------------------------------------------------------

  WARNING 04: minimum elevation drop used for Conduit WS02004404WS02004405
  WARNING 03: negative offset ignored for Link YS02001904YS02001907
  
  *********************************************************
  NOTE: The summary statistics displayed in this report are
  based on results found at every computational time step,  
  not just on results from each reporting time step.
  *********************************************************
  
  ****************
  Analysis Options
  ****************
  Flow Units ............... LPS
  Process Models:
    Rainfall/Runoff ........ YES
    RDII ................... NO
    Snowmelt ............... NO
    Groundwater ............ NO
    Flow Routing ........... YES
    Ponding Allowed ........ NO
    Water Quality .......... NO
  Infiltration Method ...... HORTON
  Flow Routing Method ...... DYNWAVE
  Surcharge Method ......... EXTRAN
  Starting Date ............ 08/28/2015 08:00:00
  Ending Date .............. 08/28/2015 16:00:00
  Antecedent Dry Days ...... 8.0
  Report Time Step ......... 00:01:00
  Wet Time Step ............ 00:01:00
  Dry Time Step ............ 00:01:00
  Routing Time Step ........ 30.00 sec
  Variable Time Step ....... YES
  Maximum Trials ........... 8
  Number of Threads ........ 4
  Head Tolerance ........... 0.001500 m
  
  
  **************************        Volume         Depth
  Runoff Quantity Continuity     hectare-m            mm
  **************************     ---------       -------
  Total Precipitation ......         2.107        63.518
  Evaporation Loss .........         0.000         0.000
  Infiltration Loss ........         0.106         3.210
  Surface Runoff ...........         1.968        59.320
  Final Storage ............         0.033         0.999
  Continuity Error (%) .....        -0.017
  
  
  **************************        Volume        Volume
  Flow Routing Continuity        hectare-m      10^6 ltr
  **************************     ---------     ---------
  Dry Weather Inflow .......         0.000         0.000
  Wet Weather Inflow .......         1.967        19.672
  Groundwater Inflow .......         0.000         0.000
  RDII Inflow ..............         0.000         0.000
  External Inflow ..........         0.083         0.834
  External Outflow .........         2.090        20.899
  Flooding Loss ............         0.065         0.653
  Evaporation Loss .........         0.000         0.000
  Exfiltration Loss ........         0.000         0.000
  Initial Stored Volume ....         0.243         2.431
  Final Stored Volume ......         0.181         1.811
  Continuity Error (%) .....        -1.863
  
  
  *************************
  Highest Continuity Errors
  *************************
  Node YS02001884 (2.54%)
  Node YS02001583 (-2.25%)
  Node WS02006252 (-1.88%)
  Node YS02001774 (1.86%)
  Node WS02006256 (-1.16%)
  
  
  ***************************
  Time-Step Critical Elements
  ***************************
  Link WS02006252WS02006251 (45.94%)
  Link WS02006238WS02006235 (18.29%)
  Link YS02006556YS02006558 (5.91%)
  Link WS02004404WS02004405 (5.53%)
  Link YS02001791YS02001793 (4.77%)
  
  
  ********************************
  Highest Flow Instability Indexes
  ********************************
  Link WS02006113WS02006111 (42)
  Link WS02006111WS02006112 (23)
  Link YS02001790YS02001791 (22)
  Link WS02004404WS02004405 (17)
  Link WS02006256WS02006235 (16)
  
  
  *************************
  Routing Time Step Summary
  *************************
  Minimum Time Step           :     0.00 sec
  Average Time Step           :     1.72 sec
  Maximum Time Step           :    30.00 sec
  Percent in Steady State     :    -0.00
  Average Iterations per Step :     3.26
  Percent Not Converging      :    13.12
  
  
  ***************************
  Subcatchment Runoff Summary
  ***************************
  
  ------------------------------------------------------------------------------------------------------------------------------
                            Total      Total      Total      Total     Imperv       Perv      Total       Total     Peak  Runoff
                           Precip      Runon       Evap      Infil     Runoff     Runoff     Runoff      Runoff   Runoff   Coeff
  Subcatchment                 mm         mm         mm         mm         mm         mm         mm    10^6 ltr      LPS
  ------------------------------------------------------------------------------------------------------------------------------
  sub60                     63.52       0.00       0.00       1.94      54.69       5.68      60.37        0.79   147.31   0.951
  sub61                     63.52       0.00       0.00       2.82      51.59       7.98      59.57        1.09   203.55   0.938
  sub62                     63.52       0.00       0.00       1.29      57.15       3.79      60.94        1.67   294.43   0.959
  sub63                     63.52       0.00       0.00       5.20      44.13      13.22      57.35        1.30   230.65   0.903
  sub64                     63.52       0.00       0.00       2.63      52.78       6.90      59.67        1.43   242.95   0.939
  sub65                     63.52       0.00       0.00       2.28      54.00       5.98      59.98        1.65   274.87   0.944
  sub66                     63.52       0.00       0.00       6.32      44.01      12.10      56.11        2.62   428.40   0.883
  sub67                     63.52       0.00       0.00       1.23      57.19       3.85      61.04        1.14   219.03   0.961
  sub68                     63.52       0.00       0.00       2.34      53.44       6.56      59.99        1.65   297.93   0.945
  sub69                     63.52       0.00       0.00       2.12      53.87       7.41      61.28        2.27   368.39   0.965
  sub70                     63.52       0.00       0.00       6.80      41.75      14.79      56.54        1.63   254.72   0.890
  sub71                     63.52       0.00       0.00       1.33      57.10       3.75      60.85        1.59   266.49   0.958
  sub72                     63.52       0.00       0.00       1.18      57.66       3.26      60.92        0.84   136.65   0.959
  
  
  ******************
  Node Depth Summary
  ******************
  
  ---------------------------------------------------------------------------------
                                 Average  Maximum  Maximum  Time of Max    Reported
                                   Depth    Depth      HGL   Occurrence   Max Depth
  Node                 Type       Meters   Meters   Meters  days hr:min      Meters
  ---------------------------------------------------------------------------------
  WS02003060           JUNCTION     0.24     0.37     5.31     0  02:36        0.37
  WS02003066           JUNCTION     0.20     0.29     5.85     0  02:35        0.29
  WS02003067           JUNCTION     0.52     0.69     6.01     0  02:35        0.69
  WS02003069           JUNCTION     0.27     0.42     5.00     0  02:36        0.42
  WS02003072           JUNCTION     0.33     0.49     4.86     0  02:37        0.49
  WS02003073           JUNCTION     0.19     0.29     4.36     0  02:38        0.29
  WS02004401           JUNCTION     0.63     0.86     6.86     0  02:32        0.86
  WS02004402           JUNCTION     0.66     0.89     6.85     0  02:33        0.89
  WS02004403           JUNCTION     0.68     0.91     6.84     0  02:33        0.90
  WS02004404           JUNCTION     0.76     0.99     6.84     0  02:33        0.98
  WS02004405           JUNCTION     0.75     0.95     6.80     0  02:33        0.95
  WS02004406           JUNCTION     0.76     0.95     6.78     0  02:33        0.95
  WS02004407           JUNCTION     0.19     0.29     6.60     0  02:33        0.29
  WS02004409           JUNCTION     0.42     0.65     6.42     0  02:34        0.65
  WS02004410           JUNCTION     0.44     0.66     6.38     0  02:34        0.66
  WS02004411           JUNCTION     0.46     0.67     6.35     0  02:35        0.67
  WS02004412           JUNCTION     0.48     0.68     6.32     0  02:35        0.68
  WS02004413           JUNCTION     0.65     0.84     6.31     0  02:35        0.84
  WS02006109           JUNCTION     0.68     1.24     7.85     0  00:00        1.07
  WS02006110           JUNCTION     0.68     1.45     8.04     0  00:00        1.00
  WS02006111           JUNCTION     0.19     1.67     8.37     0  00:00        0.54
  WS02006112           JUNCTION     0.79     2.68     8.56     0  00:00        1.21
  WS02006113           JUNCTION     0.29     1.50     8.40     0  00:00        0.45
  WS02006115           JUNCTION     0.51     1.69     7.83     0  00:00        0.86
  WS02006116           JUNCTION     0.60     1.11     7.15     0  00:00        0.84
  WS02006228           JUNCTION     0.67     1.64     8.29     0  00:00        1.10
  WS02006229           JUNCTION     0.64     1.31     8.00     0  00:00        1.08
  WS02006230           JUNCTION     0.65     1.47     8.22     0  02:27        1.11
  WS02006231           JUNCTION     0.44     1.18     8.30     0  03:25        1.00
  WS02006232           JUNCTION     0.57     1.71     8.75     0  01:35        1.09
  WS02006234           JUNCTION     0.50     1.96     9.12     0  01:35        1.33
  WS02006235           JUNCTION     0.54     1.89     9.05     0  01:35        1.68
  WS02006238           JUNCTION     0.57     1.91     9.06     0  01:35        1.61
  WS02006239           JUNCTION     0.54     1.85     9.06     0  01:35        1.48
  WS02006240           JUNCTION     0.50     1.72     9.02     0  01:35        1.47
  WS02006242           JUNCTION     0.58     1.55     8.82     0  01:35        1.54
  WS02006243           JUNCTION     0.48     1.43     8.85     0  01:51        1.41
  WS02006245           JUNCTION     0.48     1.33     8.82     0  03:25        1.33
  WS02006247           JUNCTION     0.51     1.28     8.78     0  03:25        1.28
  WS02006248           JUNCTION     0.46     1.10     8.69     0  02:26        1.10
  WS02006249           JUNCTION     0.49     1.09     8.69     0  02:26        1.09
  WS02006251           JUNCTION     0.48     1.48     9.15     0  00:00        1.19
  WS02006252           JUNCTION     0.35     1.50     9.74     0  01:09        0.74
  WS02006256           JUNCTION     1.05     2.35     9.28     0  00:00        2.35
  WSF200               JUNCTION     0.18     0.28     5.52     0  02:35        0.28
  YS02001580           JUNCTION     0.14     1.05     9.59     0  01:41        0.62
  YS02001583           JUNCTION     0.17     1.00     9.50     0  01:41        0.66
  YS02001586           JUNCTION     0.30     1.13     9.30     0  01:41        0.99
  YS02001590           JUNCTION     0.43     1.40     9.26     0  01:41        1.25
  YS02001593           JUNCTION     0.37     1.35     9.21     0  01:41        1.19
  YS02001596           JUNCTION     0.54     1.70     9.12     0  01:41        1.58
  YS02001600           JUNCTION     0.65     1.87     9.00     0  01:41        1.82
  YS02001601           JUNCTION     0.86     2.06     8.90     0  01:40        2.06
  YS02001602           JUNCTION     0.73     1.86     8.76     0  02:29        1.85
  YS02001605           JUNCTION     0.65     1.68     8.58     0  02:29        1.67
  YS02001607           JUNCTION     0.56     1.43     8.28     0  02:29        1.41
  YS02001610           JUNCTION     0.60     1.47     8.27     0  02:29        1.46
  YS02001613           JUNCTION     0.56     1.41     8.25     0  02:26        1.40
  YS02001616           JUNCTION     0.48     1.33     8.24     0  02:29        1.32
  YS02001619           JUNCTION     0.46     1.30     8.23     0  02:29        1.29
  YS02001622           JUNCTION     0.45     1.29     8.19     0  02:26        1.28
  YS02001625           JUNCTION     0.70     1.53     8.13     0  02:26        1.52
  YS02001629           JUNCTION     0.59     1.53     8.07     0  02:26        1.52
  YS02001633           JUNCTION     0.65     1.55     8.01     0  02:26        1.55
  YS02001641           JUNCTION     0.60     1.37     7.81     0  02:36        1.37
  YS02001644           JUNCTION     0.58     1.31     7.74     0  02:28        1.30
  YS02001647           JUNCTION     0.34     1.03     7.64     0  02:28        1.01
  YS02001649           JUNCTION     0.39     1.13     7.52     0  02:28        1.13
  YS02001652           JUNCTION     0.25     0.93     7.53     0  02:28        0.93
  YS02001655           JUNCTION     0.15     0.68     7.53     0  02:28        0.67
  YS02001658           JUNCTION     0.10     0.38     7.52     0  02:28        0.37
  YS02001661           JUNCTION     0.14     0.27     7.68     0  01:41        0.27
  YS02001664           JUNCTION     0.07     0.18     8.11     0  01:41        0.18
  YS02001745           JUNCTION     0.06     0.16     7.68     0  01:41        0.16
  YS02001748           JUNCTION     0.09     0.35     7.43     0  02:59        0.34
  YS02001751           JUNCTION     0.12     0.55     7.43     0  03:00        0.55
  YS02001754           JUNCTION     0.20     0.82     7.43     0  02:59        0.82
  YS02001757           JUNCTION     0.39     1.17     7.43     0  02:59        1.17
  YS02001759           JUNCTION     0.32     1.07     7.43     0  02:59        1.07
  YS02001762           JUNCTION     0.31     1.04     7.44     0  02:59        1.03
  YS02001765           JUNCTION     0.28     0.99     7.44     0  02:59        0.99
  YS02001767           JUNCTION     0.27     0.95     7.44     0  02:59        0.95
  YS02001770           JUNCTION     0.29     0.95     7.44     0  02:59        0.95
  YS02001774           JUNCTION     0.35     1.02     7.44     0  02:59        1.02
  YS02001779           JUNCTION     0.17     0.76     7.44     0  03:00        0.76
  YS02001783           JUNCTION     0.29     0.76     6.90     0  02:24        0.76
  YS02001784           JUNCTION     0.31     0.75     6.82     0  02:25        0.75
  YS02001786           JUNCTION     0.26     0.61     6.64     0  02:25        0.61
  YS02001788           JUNCTION     0.20     0.49     6.46     0  02:24        0.49
  YS02001790           JUNCTION     0.24     0.58     6.22     0  02:25        0.58
  YS02001791           JUNCTION     0.15     0.35     5.82     0  02:26        0.35
  YS02001793           JUNCTION     0.08     0.18     5.01     0  02:26        0.17
  YS02001882           JUNCTION     0.33     0.80     7.52     0  02:24        0.80
  YS02001884           JUNCTION     0.42     0.90     7.52     0  02:25        0.90
  YS02001887           JUNCTION     0.49     0.98     7.52     0  02:23        0.98
  YS02001890           JUNCTION     0.52     1.01     7.52     0  02:24        1.01
  YS02001895           JUNCTION     0.30     0.77     7.51     0  02:24        0.77
  YS02001898           JUNCTION     0.30     0.78     7.51     0  02:24        0.78
  YS02001901           JUNCTION     0.42     0.91     7.51     0  02:24        0.90
  YS02001904           JUNCTION     0.40     0.88     7.51     0  02:23        0.88
  YS02001907           JUNCTION     0.71     1.23     7.52     0  01:44        1.22
  YS02001910           JUNCTION     0.51     1.09     7.60     0  01:42        1.05
  YS02001915           JUNCTION     0.32     0.80     7.52     0  02:24        0.80
  YS02001918           JUNCTION     0.13     0.46     7.52     0  02:25        0.45
  YS02001920           JUNCTION     0.20     0.52     7.53     0  02:24        0.52
  YS02001923           JUNCTION     0.08     0.26     7.52     0  02:24        0.25
  YS02001926           JUNCTION     0.15     0.31     7.75     0  02:22        0.31
  YS02001929           JUNCTION     0.08     0.17     7.87     0  02:22        0.17
  YS02006553           JUNCTION     0.71     1.23     7.51     0  01:44        1.22
  YS02006556           JUNCTION     0.68     1.19     7.50     0  01:44        1.17
  YS02006558           JUNCTION     0.72     1.22     7.49     0  01:44        1.21
  YS02006561           JUNCTION     0.17     0.40     7.06     0  02:23        0.40
  YS02163301           JUNCTION     0.61     1.53     8.05     0  02:26        1.53
  YS02163601           JUNCTION     0.67     1.50     7.90     0  02:36        1.50
  YS02164001           JUNCTION     0.60     1.40     7.85     0  02:36        1.40
  CC-1                 OUTFALL      0.00     0.00     0.00     0  00:00        0.00
  CC-2                 OUTFALL      0.00     0.00     0.00     0  00:00        0.00
  JK-1                 OUTFALL      0.00     0.00     0.00     0  00:00        0.00
  JK-2                 OUTFALL      0.00     0.00     0.00     0  00:00        0.00
  WSC                  OUTFALL      0.19     0.29     0.96     0  02:38        0.29
  CC-storage           STORAGE      0.74     1.45     6.95     0  03:02        1.45
  JK-storage           STORAGE      1.48     4.20     5.00     0  01:27        4.20
  
  
  *******************
  Node Inflow Summary
  *******************
  
  -------------------------------------------------------------------------------------------------
                                  Maximum  Maximum                  Lateral       Total        Flow
                                  Lateral    Total  Time of Max      Inflow      Inflow     Balance
                                   Inflow   Inflow   Occurrence      Volume      Volume       Error
  Node                 Type           LPS      LPS  days hr:min    10^6 ltr    10^6 ltr     Percent
  -------------------------------------------------------------------------------------------------
  WS02003060           JUNCTION     16.53   528.04     0  02:36       0.476        5.88       0.038
  WS02003066           JUNCTION      0.00   510.91     0  02:35           0         5.4       0.026
  WS02003067           JUNCTION      0.00   510.45     0  02:35           0        5.41       0.076
  WS02003069           JUNCTION      0.32   528.90     0  02:36     0.00922        5.88       0.064
  WS02003072           JUNCTION      0.00   527.44     0  02:37           0        5.88       0.118
  WS02003073           JUNCTION      1.82   527.85     0  02:37      0.0524        5.93       0.093
  WS02004401           JUNCTION      0.00  1791.60     0  00:00           0        5.52       0.196
  WS02004402           JUNCTION      0.00  1254.90     0  00:01           0         5.5       0.197
  WS02004403           JUNCTION      0.00   919.18     0  00:01           0        5.49       0.192
  WS02004404           JUNCTION      0.00   867.70     0  00:01           0        5.48       0.169
  WS02004405           JUNCTION      0.00   859.04     0  00:01           0        5.47       0.193
  WS02004406           JUNCTION      0.00   734.85     0  00:02           0        5.46       0.394
  WS02004407           JUNCTION      0.00   523.30     0  02:33           0        5.44       0.019
  WS02004409           JUNCTION      0.00   522.49     0  02:33           0        5.44       0.048
  WS02004410           JUNCTION      0.00   520.08     0  02:34           0        5.44       0.082
  WS02004411           JUNCTION      0.00   516.17     0  02:34           0        5.43       0.102
  WS02004412           JUNCTION      0.00   514.29     0  02:34           0        5.43       0.135
  WS02004413           JUNCTION      0.00   511.97     0  02:35           0        5.42       0.248
  WS02006109           JUNCTION      0.00  1446.81     0  00:00           0        5.41      -0.153
  WS02006110           JUNCTION      0.00   557.98     0  02:27           0        5.39      -1.006
  WS02006111           JUNCTION      0.00  1180.41     0  00:00           0        5.44      -0.771
  WS02006112           JUNCTION      0.00  2307.30     0  00:00           0        5.48      -0.003
  WS02006113           JUNCTION      0.00   567.80     0  02:27           0        5.41      -0.701
  WS02006115           JUNCTION      0.00   937.16     0  00:00           0        5.45      -0.648
  WS02006116           JUNCTION      0.00  1254.80     0  00:00           0        5.49      -0.465
  WS02006228           JUNCTION      0.00   869.18     0  00:00           0        5.39      -0.049
  WS02006229           JUNCTION      0.00   556.38     0  02:27           0        5.38      -0.056
  WS02006230           JUNCTION     10.28   687.18     0  00:00       0.296        5.37       0.012
  WS02006231           JUNCTION      0.00   578.70     0  03:13           0        5.05      -0.082
  WS02006232           JUNCTION      0.00   577.67     0  03:13           0        5.05       0.177
  WS02006234           JUNCTION      0.00   571.95     0  03:13           0        5.04      -0.140
  WS02006235           JUNCTION      0.00   561.81     0  03:13           0        5.06       0.064
  WS02006238           JUNCTION      0.00   429.38     0  03:27           0        4.31      -0.185
  WS02006239           JUNCTION      0.00   423.44     0  03:27           0         4.3      -0.169
  WS02006240           JUNCTION      0.00   426.23     0  03:31           0        4.29      -0.014
  WS02006242           JUNCTION      0.00   427.13     0  03:31           0        4.28      -0.067
  WS02006243           JUNCTION      0.00   428.94     0  03:31           0        4.28      -0.058
  WS02006245           JUNCTION      0.00   428.10     0  03:31           0        4.29       0.218
  WS02006247           JUNCTION      0.00   427.09     0  03:31           0        4.29       0.016
  WS02006248           JUNCTION      0.00   433.76     0  02:01           0        4.29       0.060
  WS02006249           JUNCTION      0.00   843.88     0  00:00           0        4.34       0.083
  WS02006251           JUNCTION      0.00   478.35     0  00:00           0        4.33      -0.229
  WS02006252           JUNCTION      0.00   400.00     0  00:00           0        4.25      -1.850
  WS02006256           JUNCTION      0.00   300.00     0  00:00           0        1.04      -1.147
  WSF200               JUNCTION      0.00   511.11     0  02:35           0         5.4       0.008
  YS02001580           JUNCTION      0.00    67.31     0  01:41           0     0.00561      -0.343
  YS02001583           JUNCTION      0.00    97.20     0  01:41           0      0.0209      -2.204
  YS02001586           JUNCTION    254.72   254.78     0  02:23        1.63        1.65       0.074
  YS02001590           JUNCTION      0.00   254.78     0  02:22           0        1.63      -0.032
  YS02001593           JUNCTION      0.00   254.80     0  02:23           0        1.63       0.002
  YS02001596           JUNCTION      0.00   254.78     0  02:23           0        1.63      -0.015
  YS02001600           JUNCTION      0.00   254.78     0  02:22           0        1.63       0.017
  YS02001601           JUNCTION    368.39   622.29     0  02:22        2.27         3.9       0.022
  YS02001602           JUNCTION      0.00   513.59     0  01:50           0        3.62       0.017
  YS02001605           JUNCTION      0.00   513.61     0  01:50           0        3.62       0.022
  YS02001607           JUNCTION      0.00   513.62     0  01:50           0        3.62       0.055
  YS02001610           JUNCTION      0.00   513.87     0  01:51           0        3.62       0.074
  YS02001613           JUNCTION      0.00   513.71     0  01:50           0        3.62       0.047
  YS02001616           JUNCTION      0.00   513.79     0  01:50           0        3.63       0.014
  YS02001619           JUNCTION    428.40   901.33     0  02:20        2.62        6.24       0.001
  YS02001622           JUNCTION      0.00   901.17     0  02:20           0        6.23       0.001
  YS02001625           JUNCTION      0.00   900.99     0  02:20           0        6.23       0.176
  YS02001629           JUNCTION      0.00   900.90     0  02:20           0        6.22       0.000
  YS02001633           JUNCTION    274.87  1174.46     0  02:21        1.65        7.88       0.041
  YS02001641           JUNCTION      0.00  1173.66     0  02:21           0        7.88       0.037
  YS02001644           JUNCTION    242.95  1413.74     0  02:21        1.43         9.3       0.036
  YS02001647           JUNCTION      0.00  1413.94     0  02:21           0        9.29       0.006
  YS02001649           JUNCTION      0.00  1617.53     0  01:43           0        10.6       0.006
  YS02001652           JUNCTION      0.00   239.84     0  01:42           0         1.3      -0.136
  YS02001655           JUNCTION      0.00   233.28     0  02:28           0         1.3       0.108
  YS02001658           JUNCTION      0.00   230.38     0  01:41           0         1.3      -0.009
  YS02001661           JUNCTION      0.00   230.55     0  01:41           0         1.3       0.026
  YS02001664           JUNCTION    230.65   230.65     0  01:41         1.3         1.3      -0.009
  YS02001745           JUNCTION    147.31   147.31     0  01:41       0.793       0.793       0.072
  YS02001748           JUNCTION      0.00   147.23     0  01:41           0       0.792      -0.104
  YS02001751           JUNCTION      0.00   147.20     0  01:41           0       0.793       0.168
  YS02001754           JUNCTION      0.00   147.14     0  01:41           0       0.792      -0.212
  YS02001757           JUNCTION      0.00  2185.21     0  01:43           0        14.1       0.027
  YS02001759           JUNCTION    203.55   461.52     0  01:45        1.09        2.76      -0.017
  YS02001762           JUNCTION      0.00   283.86     0  01:46           0        1.67       0.004
  YS02001765           JUNCTION      0.00   283.41     0  01:46           0        1.67       0.013
  YS02001767           JUNCTION      0.00   274.76     0  01:42           0        1.67       0.014
  YS02001770           JUNCTION    294.43   294.43     0  01:41        1.67        1.72      -0.028
  YS02001774           JUNCTION      0.00    56.97     0  01:06           0      0.0722       1.892
  YS02001779           JUNCTION      0.00    27.57     0  02:21           0      0.0215       0.144
  YS02001783           JUNCTION      0.00   838.15     0  02:24           0        5.15       0.001
  YS02001784           JUNCTION      0.00   838.51     0  01:45           0        5.15       0.000
  YS02001786           JUNCTION      0.00   836.99     0  02:25           0        5.15       0.007
  YS02001788           JUNCTION      0.00   837.17     0  02:25           0        5.15       0.004
  YS02001790           JUNCTION      0.00   837.40     0  02:25           0        5.15       0.018
  YS02001791           JUNCTION      0.00   881.64     0  02:24           0        5.15      -0.010
  YS02001793           JUNCTION      0.00   848.44     0  02:26           0        5.15       0.002
  YS02001882           JUNCTION      0.00    70.50     0  01:15           0      0.0333       1.545
  YS02001884           JUNCTION      0.00   104.84     0  01:13           0      0.0807       2.604
  YS02001887           JUNCTION    219.03   225.20     0  01:39        1.13        1.18       0.376
  YS02001890           JUNCTION      0.00   239.39     0  01:39           0        1.13       0.366
  YS02001895           JUNCTION      0.00   227.40     0  01:39           0        1.12       0.224
  YS02001898           JUNCTION      0.00   230.44     0  01:39           0        1.12      -0.085
  YS02001901           JUNCTION      0.00   227.57     0  01:41           0        1.13       0.246
  YS02001904           JUNCTION      0.00   216.16     0  01:45           0        1.14       0.216
  YS02001907           JUNCTION      0.00   579.20     0  02:27           0        3.57       0.467
  YS02001910           JUNCTION      0.00   449.40     0  01:42           0        2.43       0.275
  YS02001915           JUNCTION    266.49   390.75     0  02:25        1.59        2.43       0.033
  YS02001918           JUNCTION      0.00   145.90     0  01:46           0       0.837       0.018
  YS02001920           JUNCTION      0.00   141.89     0  02:24           0       0.837       0.076
  YS02001923           JUNCTION      0.00   136.58     0  02:22           0       0.837      -0.011
  YS02001926           JUNCTION      0.00   136.63     0  02:22           0       0.838       0.040
  YS02001929           JUNCTION    136.65   136.65     0  02:22       0.838       0.838      -0.011
  YS02006553           JUNCTION      0.00   579.09     0  02:27           0        3.57       0.305
  YS02006556           JUNCTION      0.00   578.89     0  02:27           0        3.59       0.205
  YS02006558           JUNCTION    297.93   837.57     0  02:24        1.65         5.2       0.055
  YS02006561           JUNCTION      0.00   838.12     0  02:24           0        5.15       0.000
  YS02163301           JUNCTION      0.00   899.80     0  02:21           0        6.23       0.026
  YS02163601           JUNCTION      0.00  1174.27     0  02:21           0        7.87       0.067
  YS02164001           JUNCTION      0.00  1174.00     0  02:21           0        7.87       0.033
  CC-1                 OUTFALL       0.00   683.00     0  00:00           0        6.32       0.000
  CC-2                 OUTFALL       0.00   683.00     0  00:00           0        4.43       0.000
  JK-1                 OUTFALL       0.00  1000.00     0  00:00           0        2.16       0.000
  JK-2                 OUTFALL       0.00  1000.00     0  01:30           0        2.06       0.000
  WSC                  OUTFALL       0.00   525.88     0  02:38           0        5.92       0.000
  CC-storage           STORAGE       0.00  2168.52     0  01:44           0        16.4      -0.168
  JK-storage           STORAGE       0.00   848.24     0  02:26           0         5.3      -0.303
  
  
  **********************
  Node Surcharge Summary
  **********************
  
  Surcharging occurs when water rises above the top of the highest conduit.
  ---------------------------------------------------------------------
                                               Max. Height   Min. Depth
                                   Hours       Above Crown    Below Rim
  Node                 Type      Surcharged         Meters       Meters
  ---------------------------------------------------------------------
  WS02006109           JUNCTION        2.32          0.416        1.404
  WS02006110           JUNCTION        0.12          0.544        1.306
  WS02006111           JUNCTION        0.01          0.856        1.014
  WS02006112           JUNCTION        0.20          1.680        0.000
  WS02006113           JUNCTION        0.01          0.705        1.225
  WS02006115           JUNCTION        0.01          0.682        1.568
  WS02006116           JUNCTION        0.01          0.053        2.237
  WS02006228           JUNCTION        2.26          0.810        1.390
  WS02006229           JUNCTION        2.35          0.510        1.940
  WS02006230           JUNCTION        0.13          0.390        1.180
  WS02006231           JUNCTION        0.20          0.468        1.062
  WS02006232           JUNCTION        2.48          1.009        0.471
  WS02006234           JUNCTION        0.90          1.240        0.000
  WS02006235           JUNCTION        2.34          1.178        0.112
  WS02006238           JUNCTION        2.42          1.192        0.238
  WS02006239           JUNCTION        2.26          1.115        0.175
  WS02006240           JUNCTION        2.18          1.014        0.376
  WS02006242           JUNCTION        2.33          0.820        0.000
  WS02006243           JUNCTION        1.92          0.724        0.046
  WS02006245           JUNCTION        1.91          0.621        0.229
  WS02006247           JUNCTION        1.94          0.566        0.194
  WS02006248           JUNCTION        1.89          0.380        0.000
  WS02006249           JUNCTION        1.92          0.390        0.000
  WS02006251           JUNCTION        0.27          0.453        0.727
  WS02006252           JUNCTION        2.47          1.100        0.000
  WS02006256           JUNCTION        7.47          2.050        0.000
  YS02001580           JUNCTION        0.16          0.450        0.000
  YS02001583           JUNCTION        0.20          0.361        0.139
  YS02001586           JUNCTION        1.38          0.510        0.000
  YS02001590           JUNCTION        1.44          0.750        0.000
  YS02001593           JUNCTION        1.45          0.728        0.112
  YS02001596           JUNCTION        1.65          0.972        0.098
  YS02001600           JUNCTION        1.98          1.190        0.000
  YS02001601           JUNCTION        2.16          1.440        0.000
  YS02001602           JUNCTION        2.10          1.255        0.015
  YS02001605           JUNCTION        2.08          1.079        0.101
  YS02001607           JUNCTION        1.42          0.428        0.252
  YS02001610           JUNCTION        1.44          0.467        0.213
  YS02001613           JUNCTION        1.41          0.410        0.290
  YS02001616           JUNCTION        1.30          0.329        0.281
  YS02001619           JUNCTION        1.20          0.298        0.312
  YS02001622           JUNCTION        1.13          0.288        0.332
  YS02001625           JUNCTION        1.51          0.526        0.254
  YS02001629           JUNCTION        0.66          0.145        0.325
  YS02001633           JUNCTION        1.52          0.533        0.527
  YS02001641           JUNCTION        1.45          0.368        0.732
  YS02001644           JUNCTION        1.42          0.305        0.615
  YS02001647           JUNCTION        0.02          0.026        0.874
  YS02001649           JUNCTION        0.67          0.134        0.916
  YS02001757           JUNCTION        0.71          0.166        1.044
  YS02001759           JUNCTION        0.62          0.069        1.141
  YS02001762           JUNCTION        0.54          0.036        1.114
  YS02001774           JUNCTION        0.45          0.021        1.029
  YS02001907           JUNCTION        1.51          0.223        0.727
  YS02001910           JUNCTION        0.10          0.094        1.006
  YS02006553           JUNCTION        1.55          0.225        0.965
  YS02006556           JUNCTION        0.73          0.146        1.204
  YS02006558           JUNCTION        0.64          0.123        1.277
  YS02163301           JUNCTION        1.50          0.530        0.500
  YS02163601           JUNCTION        1.55          0.504        0.576
  YS02164001           JUNCTION        1.46          0.396        0.704
  
  
  *********************
  Node Flooding Summary
  *********************
  
  Flooding refers to all water that overflows a node, whether it ponds or not.
  --------------------------------------------------------------------------
                                                             Total   Maximum
                                 Maximum   Time of Max       Flood    Ponded
                        Hours       Rate    Occurrence      Volume     Depth
  Node                 Flooded       LPS   days hr:min    10^6 ltr    Meters
  --------------------------------------------------------------------------
  WS02006112              0.01   1405.86      0  00:00       0.047     0.000
  WS02006234              0.01     89.21      0  01:35       0.000     0.000
  WS02006242              0.01      3.80      0  01:35       0.000     0.000
  WS02006248              0.02     25.10      0  03:25       0.001     0.000
  WS02006249              0.21     76.08      0  03:14       0.041     0.000
  WS02006252              0.01    239.47      0  01:13       0.000     0.000
  WS02006256              0.96    293.85      0  02:06       0.305     0.000
  YS02001580              0.01     37.52      0  01:41       0.000     0.000
  YS02001586              0.01     34.68      0  01:41       0.000     0.000
  YS02001590              0.01      1.14      0  01:41       0.000     0.000
  YS02001600              0.01      2.81      0  01:41       0.000     0.000
  YS02001601              1.03    155.89      0  02:26       0.275     0.000
  
  
  **********************
  Storage Volume Summary
  **********************
  
  --------------------------------------------------------------------------------------------------
                         Average     Avg  Evap Exfil       Maximum     Max    Time of Max    Maximum
                          Volume    Pcnt  Pcnt  Pcnt        Volume    Pcnt     Occurrence    Outflow
  Storage Unit           1000 m3    Full  Loss  Loss       1000 m3    Full    days hr:min        LPS
  --------------------------------------------------------------------------------------------------
  CC-storage               2.068      32     0     0         4.039      63       0  03:02    1794.93
  JK-storage               0.074      26     0     0         0.211      72       0  01:27    2300.00
  
  
  ***********************
  Outfall Loading Summary
  ***********************
  
  -----------------------------------------------------------
                         Flow       Avg       Max       Total
                         Freq      Flow      Flow      Volume
  Outfall Node           Pcnt       LPS       LPS    10^6 ltr
  -----------------------------------------------------------
  CC-1                  46.71    683.00    683.00       6.323
  CC-2                  34.88    683.00    683.00       4.433
  JK-1                   9.54   1000.00   1000.00       2.163
  JK-2                   9.30   1000.00   1000.00       2.059
  WSC                   99.99    267.13    525.88       5.921
  -----------------------------------------------------------
  System                40.09   3633.13    525.88      20.899
  
  
  ********************
  Link Flow Summary
  ********************
  
  -----------------------------------------------------------------------------
                                 Maximum  Time of Max   Maximum    Max/    Max/
                                  |Flow|   Occurrence   |Veloc|    Full    Full
  Link                 Type          LPS  days hr:min     m/sec    Flow   Depth
  -----------------------------------------------------------------------------
  1                    CONDUIT    525.88     0  02:38      2.78    0.18    0.29
  WS02003060WS02003069 CONDUIT    528.58     0  02:36      1.63    0.21    0.33
  WS02003066WSF200     CONDUIT    511.11     0  02:35      2.82    0.09    0.22
  WS02003067WS02003066 CONDUIT    510.91     0  02:35      1.17    0.16    0.41
  WS02003069WS02003072 CONDUIT    527.44     0  02:37      1.35    0.25    0.38
  WS02003072WS02003073 CONDUIT    526.03     0  02:37      1.41    1.14    0.36
  WS02004401WS02004402 CONDUIT   1254.90     0  00:01      2.61    1.51    0.87
  WS02004402WS02004403 CONDUIT    919.18     0  00:01      2.26    1.32    0.90
  WS02004403WS02004404 CONDUIT    867.70     0  00:01      2.00    0.63    0.95
  WS02004404WS02004405 CONDUIT    859.04     0  00:01      2.43    8.42    0.96
  WS02004405WS02004406 CONDUIT    734.85     0  00:02      2.27    1.45    0.95
  WS02004406WS02004407 CONDUIT    523.30     0  02:33      1.02    0.23    0.62
  WS02004407WS02004409 CONDUIT    522.49     0  02:33      1.97    0.19    0.47
  WS02004409WS02004410 CONDUIT    520.08     0  02:34      1.35    0.67    0.65
  WS02004410WS02004411 CONDUIT    516.17     0  02:34      1.29    0.70    0.67
  WS02004411WS02004412 CONDUIT    514.29     0  02:34      1.26    0.73    0.68
  WS02004412WS02004413 CONDUIT    511.97     0  02:35      1.26    0.34    0.76
  WS02004413WS02003067 CONDUIT    510.45     0  02:35      1.08    0.22    0.58
  WS02006109WS02006110 CONDUIT   1446.81     0  00:00      2.88    2.78    1.00
  WS02006110WS02006113 CONDUIT    567.80     0  02:27      1.38    0.52    1.00
  WS02006111WS02006112 CONDUIT   2307.30     0  00:00      9.18    1.10    1.00
  WS02006112WS02006115 CONDUIT    937.16     0  00:00      1.22    0.55    1.00
  WS02006113WS02006111 CONDUIT   1180.41     0  00:00      2.46    1.41    1.00
  WS02006115WS02006116 CONDUIT   1254.80     0  00:00      1.72    1.61    1.00
  WS02006116WS02004401 CONDUIT   1791.60     0  00:00      2.97    2.47    0.85
  WS02006228WS02006109 CONDUIT    869.18     0  00:00      1.91    3.80    1.00
  WS02006229WS02006228 CONDUIT    556.93     0  02:27      1.11    1.84    1.00
  WS02006230WS02006229 CONDUIT    676.90     0  00:00      1.89   15.06    1.00
  WS02006231WS02006230 CONDUIT    583.38     0  03:17      2.02    8.85    1.00
  WS02006232WS02006231 CONDUIT    578.70     0  03:13      1.77    1.21    1.00
  WS02006234WS02006232 CONDUIT    577.67     0  03:13      1.50    1.17    1.00
  WS02006235WS02006234 CONDUIT    571.95     0  03:13      1.49    6.03    1.00
  WS02006238WS02006235 CONDUIT    448.71     0  03:27      1.48    1.00    1.00
  WS02006239WS02006238 CONDUIT    429.38     0  03:27      1.12    1.37    1.00
  WS02006240WS02006239 CONDUIT    423.44     0  03:27      1.28    1.33    1.00
  WS02006242WS02006240 CONDUIT    426.23     0  03:31      1.11    1.69    1.00
  WS02006243WS02006242 CONDUIT    427.13     0  03:31      1.35    0.91    1.00
  WS02006245WS02006243 CONDUIT    428.94     0  03:31      1.46    1.27    1.00
  WS02006247WS02006245 CONDUIT    428.10     0  03:31      1.44    3.39    1.00
  WS02006248WS02006247 CONDUIT    427.09     0  03:31      1.51    0.93    1.00
  WS02006249WS02006248 CONDUIT    433.76     0  02:01      1.48    2.38    1.00
  WS02006251WS02006249 CONDUIT    843.88     0  00:00      3.03    2.43    1.00
  WS02006252WS02006251 CONDUIT    478.35     0  00:00     20.62    1.76    1.00
  WS02006256WS02006235 CONDUIT    288.74     0  00:01      4.23    3.06    1.00
  WSF200WS02003060     CONDUIT    511.51     0  02:36      2.03    0.11    0.27
  YS02001580YS02001583 CONDUIT     67.31     0  01:41      0.52    0.26    1.00
  YS02001583YS02001586 CONDUIT     95.60     0  01:40      0.42    0.14    1.00
  YS02001586YS02001590 CONDUIT    254.78     0  02:22      1.27    0.45    1.00
  YS02001590YS02001593 CONDUIT    254.80     0  02:23      1.05    1.60    1.00
  YS02001593YS02001596 CONDUIT    254.78     0  02:23      1.70    0.40    1.00
  YS02001596YS02001600 CONDUIT    254.78     0  02:22      1.24    0.50    1.00
  YS02001600YS02001601 CONDUIT    254.78     0  02:22      0.90    0.44    1.00
  YS02001601YS02001602 CONDUIT    513.59     0  01:50      1.82    1.86    1.00
  YS02001602YS02001605 CONDUIT    513.61     0  01:50      1.82   10.87    1.00
  YS02001605YS02001607 CONDUIT    513.62     0  01:50      1.82    2.82    1.00
  YS02001607YS02001610 CONDUIT    513.87     0  01:51      0.75    0.49    1.00
  YS02001610YS02001613 CONDUIT    513.71     0  01:50      0.66    0.59    1.00
  YS02001613YS02001616 CONDUIT    513.79     0  01:50      0.71    0.44    1.00
  YS02001616YS02001619 CONDUIT    513.96     0  01:50      0.79    0.89    1.00
  YS02001619YS02001622 CONDUIT    901.17     0  02:20      1.63    1.33    1.00
  YS02001622YS02001625 CONDUIT    900.99     0  02:20      1.15    0.48    1.00
  YS02001625YS02001629 CONDUIT    900.90     0  02:20      1.15    0.43    1.00
  YS02001629YS02163301 CONDUIT    899.80     0  02:21      1.15    1.11    1.00
  YS02001633YS02163601 CONDUIT   1174.27     0  02:21      1.50    1.23    1.00
  YS02001641YS02001644 CONDUIT   1173.49     0  02:21      1.49    3.79    1.00
  YS02001644YS02001647 CONDUIT   1413.94     0  02:21      1.97    0.83    1.00
  YS02001647YS02001649 CONDUIT   1406.40     0  02:20      2.30    0.74    1.00
  YS02001649YS02001757 CONDUIT   1625.52     0  01:43      2.52    0.99    1.00
  YS02001652YS02001649 CONDUIT    248.36     0  01:43      1.23    0.12    0.97
  YS02001655YS02001652 CONDUIT    239.84     0  01:42      1.60    0.12    0.79
  YS02001658YS02001655 CONDUIT    233.28     0  02:28      1.81    0.10    0.52
  YS02001661YS02001658 CONDUIT    230.38     0  01:41      1.96    0.09    0.28
  YS02001664YS02001661 CONDUIT    230.55     0  01:41      1.71    0.07    0.23
  YS02001745YS02001748 CONDUIT    147.23     0  01:41      1.79    0.06    0.20
  YS02001748YS02001751 CONDUIT    147.20     0  01:41      1.50    0.07    0.45
  YS02001751YS02001754 CONDUIT    147.14     0  01:41      1.45    0.07    0.66
  YS02001754YS02001757 CONDUIT    171.42     0  01:39      1.00    0.07    0.91
  YS02001757CaochengTiaoxuchi CONDUIT   2168.52     0  01:44      3.85    0.94    1.00
  YS02001759YS02001757 CONDUIT    462.96     0  01:45      1.27    0.33    1.00
  YS02001762YS02001759 CONDUIT    288.00     0  01:45      0.74    0.33    1.00
  YS02001765YS02001762 CONDUIT    283.86     0  01:46      0.85    0.27    0.99
  YS02001767YS02001765 CONDUIT    283.41     0  01:46      0.91    0.36    0.97
  YS02001770YS02001767 CONDUIT    274.76     0  01:42      0.83    1.09    0.95
  YS02001774YS02001770 CONDUIT     56.97     0  01:06      0.68    0.04    0.96
  YS02001779YS02001774 CONDUIT     27.57     0  02:21      0.16    0.01    0.88
  YS02001783YS02001784 CONDUIT    838.51     0  01:45      1.72    1.16    0.94
  YS02001784YS02001785 CONDUIT    836.99     0  02:25      1.84    1.95    0.85
  YS02001786YS02001788 CONDUIT    837.17     0  02:25      2.28    1.61    0.69
  YS02001788YS02001790 CONDUIT    837.40     0  02:25      2.39    0.62    0.67
  YS02001790YS02001791 CONDUIT    881.64     0  02:24      2.95    0.96    0.58
  YS02001791YS02001793 CONDUIT    848.44     0  02:26      5.96    0.36    0.33
  YS02001793JiankangQianchi CONDUIT    848.24     0  02:26      1.77    0.07    0.59
  YS02001882YS02001884 CONDUIT     70.50     0  01:15      0.40    0.08    0.82
  YS02001884YS02001887 CONDUIT    104.84     0  01:13      0.35    0.14    0.92
  YS02001887YS02001890 CONDUIT    239.39     0  01:39      0.46    0.41    0.97
  YS02001890YS02001895 CONDUIT    227.40     0  01:39      0.41    0.11    0.88
  YS02001895YS02001898 CONDUIT    230.44     0  01:39      0.70    0.40    0.76
  YS02001898YS02001901 CONDUIT    227.57     0  01:41      0.70    0.15    0.84
  YS02001901YS02001904 CONDUIT    216.16     0  01:45      0.38    0.34    0.89
  YS02001904YS02001907 CONDUIT    216.79     0  01:21      0.34    0.08    0.94
  YS02001907YS02006553 CONDUIT    579.09     0  02:27      0.64    0.68    1.00
  YS02001910YS02001907 CONDUIT    404.21     0  01:46      0.66    0.23    1.00
  YS02001915YS02001910 CONDUIT    449.40     0  01:42      1.23    0.22    0.90
  YS02001918YS02001915 CONDUIT    150.26     0  01:47      0.45    0.08    0.63
  YS02001920YS02001918 CONDUIT    145.90     0  01:46      0.67    0.14    0.49
  YS02001923YS02001920 CONDUIT    141.89     0  02:24      0.73    0.06    0.39
  YS02001926YS02001923 CONDUIT    136.58     0  02:22      0.86    0.20    0.26
  YS02001929YS02001926 CONDUIT    136.63     0  02:22      0.95    0.06    0.24
  YS02006553YS02006556 CONDUIT    578.89     0  02:27      0.88    0.50    1.00
  YS02006556YS02006558 CONDUIT    580.29     0  02:27      0.74    0.46    1.00
  YS02006558YS02006561 CONDUIT    838.12     0  02:24      3.33    1.85    0.84
  YS02006561YS02001783 CONDUIT    838.15     0  02:24      2.14    0.43    0.73
  YS02163301YS02001633 CONDUIT    899.64     0  02:21      1.15    0.85    1.00
  YS02163601YS02164001 CONDUIT   1174.00     0  02:21      1.49    1.04    1.00
  YS02164001YS02001641 CONDUIT   1173.66     0  02:21      1.49    1.60    1.00
  CC-R1                PUMP       683.00     0  00:00              1.00
  CC-R2                PUMP       683.00     0  00:00              1.00
  CC-S1                PUMP       200.00     0  00:00              1.00
  CC-S2                PUMP       200.00     0  00:00              1.00
  JK-R1                PUMP      1000.00     0  00:00              1.00
  JK-R2                PUMP      1000.00     0  01:30              1.00
  JK-S                 PUMP       300.00     0  00:00              1.00
  
  
  ***************************
  Flow Classification Summary
  ***************************
  
  -------------------------------------------------------------------------------------
                      Adjusted    ---------- Fraction of Time in Flow Class ---------- 
                       /Actual         Up    Down  Sub   Sup   Up    Down  Norm  Inlet 
  Conduit               Length    Dry  Dry   Dry   Crit  Crit  Crit  Crit  Ltd   Ctrl  
  -------------------------------------------------------------------------------------
  1                       1.00   0.00  0.00  0.00  0.00  1.00  0.00  0.00  0.30  0.00
  WS02003060WS02003069    1.00   0.00  0.00  0.00  0.96  0.04  0.00  0.00  0.63  0.00
  WS02003066WSF200        1.00   0.03  0.00  0.00  0.00  0.97  0.00  0.00  0.93  0.00
  WS02003067WS02003066    1.00   0.02  0.01  0.00  0.97  0.00  0.00  0.00  0.00  0.00
  WS02003069WS02003072    1.00   0.00  0.00  0.00  1.00  0.00  0.00  0.00  0.67  0.00
  WS02003072WS02003073    1.00   0.00  0.00  0.00  0.00  0.00  0.00  1.00  0.00  0.00
  WS02004401WS02004402    1.00   0.00  0.00  0.00  1.00  0.00  0.00  0.00  0.00  0.00
  WS02004402WS02004403    1.00   0.00  0.00  0.00  1.00  0.00  0.00  0.00  0.00  0.00
  WS02004403WS02004404    1.00   0.00  0.00  0.00  1.00  0.00  0.00  0.00  0.00  0.00
  WS02004404WS02004405    1.00   0.00  0.00  0.00  1.00  0.00  0.00  0.00  0.01  0.00
  WS02004405WS02004406    1.00   0.00  0.00  0.00  1.00  0.00  0.00  0.00  0.00  0.00
  WS02004406WS02004407    1.00   0.00  0.00  0.00  1.00  0.00  0.00  0.00  0.00  0.00
  WS02004407WS02004409    1.00   0.00  0.00  0.00  0.99  0.01  0.00  0.00  0.99  0.00
  WS02004409WS02004410    1.00   0.00  0.00  0.00  1.00  0.00  0.00  0.00  0.00  0.00
  WS02004410WS02004411    1.00   0.00  0.00  0.00  1.00  0.00  0.00  0.00  0.00  0.00
  WS02004411WS02004412    1.00   0.00  0.00  0.00  1.00  0.00  0.00  0.00  0.00  0.00
  WS02004412WS02004413    1.00   0.00  0.00  0.00  0.99  0.00  0.00  0.00  0.00  0.00
  WS02004413WS02003067    1.00   0.00  0.01  0.00  0.00  0.00  0.98  0.00  0.00  0.00
  WS02006109WS02006110    1.00   0.00  0.00  0.00  1.00  0.00  0.00  0.00  0.00  0.00
  WS02006110WS02006113    1.00   0.00  0.00  0.00  1.00  0.00  0.00  0.00  0.00  0.00
  WS02006111WS02006112    1.00   0.00  0.00  0.00  1.00  0.00  0.00  0.00  1.00  0.00
  WS02006112WS02006115    1.00   0.00  0.00  0.00  1.00  0.00  0.00  0.00  0.00  0.00
  WS02006113WS02006111    1.00   0.00  0.00  0.00  0.00  1.00  0.00  0.00  0.14  0.00
  WS02006115WS02006116    1.00   0.00  0.00  0.00  1.00  0.00  0.00  0.00  0.00  0.00
  WS02006116WS02004401    1.00   0.00  0.00  0.00  1.00  0.00  0.00  0.00  0.00  0.00
  WS02006228WS02006109    1.00   0.00  0.00  0.00  1.00  0.00  0.00  0.00  0.00  0.00
  WS02006229WS02006228    1.00   0.00  0.00  0.00  1.00  0.00  0.00  0.00  0.00  0.00
  WS02006230WS02006229    1.00   0.00  0.00  0.00  1.00  0.00  0.00  0.00  0.00  0.00
  WS02006231WS02006230    1.00   0.00  0.00  0.00  0.48  0.00  0.52  0.00  0.00  0.00
  WS02006232WS02006231    1.00   0.00  0.00  0.00  1.00  0.00  0.00  0.00  0.00  0.00
  WS02006234WS02006232    1.00   0.00  0.00  0.00  1.00  0.00  0.00  0.00  0.01  0.00
  WS02006235WS02006234    1.00   0.00  0.00  0.00  0.97  0.00  0.03  0.00  0.00  0.00
  WS02006238WS02006235    1.00   0.00  0.00  0.00  1.00  0.00  0.00  0.00  0.00  0.00
  WS02006239WS02006238    1.00   0.00  0.00  0.00  1.00  0.00  0.00  0.00  0.06  0.00
  WS02006240WS02006239    1.00   0.00  0.00  0.00  0.88  0.00  0.00  0.12  0.01  0.00
  WS02006242WS02006240    1.00   0.00  0.00  0.00  0.99  0.00  0.01  0.00  0.00  0.00
  WS02006243WS02006242    1.00   0.00  0.00  0.00  0.99  0.00  0.00  0.01  0.53  0.00
  WS02006245WS02006243    1.00   0.00  0.00  0.00  0.96  0.00  0.00  0.04  0.00  0.00
  WS02006247WS02006245    1.00   0.00  0.00  0.00  0.99  0.00  0.00  0.01  0.00  0.00
  WS02006248WS02006247    1.00   0.00  0.00  0.00  0.99  0.00  0.00  0.01  0.48  0.00
  WS02006249WS02006248    1.00   0.00  0.00  0.00  0.76  0.00  0.24  0.00  0.00  0.00
  WS02006251WS02006249    1.00   0.00  0.00  0.00  1.00  0.00  0.00  0.00  0.36  0.00
  WS02006252WS02006251    1.00   0.00  0.15  0.00  0.03  0.00  0.82  0.00  0.00  0.00
  WS02006256WS02006235    1.00   0.00  0.00  0.00  1.00  0.00  0.00  0.00  0.00  0.00
  WSF200WS02003060        1.00   0.00  0.03  0.00  0.16  0.81  0.00  0.00  0.56  0.00
  YS02001580YS02001583    1.00   0.22  0.42  0.00  0.36  0.00  0.00  0.00  0.61  0.00
  YS02001583YS02001586    1.00   0.19  0.32  0.00  0.48  0.00  0.00  0.00  0.62  0.00
  YS02001586YS02001590    1.00   0.09  0.00  0.00  0.72  0.03  0.00  0.17  0.32  0.00
  YS02001590YS02001593    1.00   0.09  0.00  0.00  0.34  0.00  0.57  0.00  0.00  0.00
  YS02001593YS02001596    1.00   0.09  0.00  0.00  0.40  0.00  0.00  0.51  0.04  0.00
  YS02001596YS02001600    1.00   0.09  0.00  0.00  0.44  0.01  0.00  0.46  0.03  0.00
  YS02001600YS02001601    1.00   0.09  0.00  0.00  0.91  0.00  0.00  0.00  0.54  0.00
  YS02001601YS02001602    1.00   0.09  0.00  0.00  0.91  0.00  0.00  0.00  0.00  0.00
  YS02001602YS02001605    1.00   0.09  0.00  0.00  0.91  0.00  0.00  0.00  0.00  0.00
  YS02001605YS02001607    1.00   0.09  0.00  0.00  0.91  0.00  0.00  0.00  0.00  0.00
  YS02001607YS02001610    1.00   0.09  0.00  0.00  0.91  0.00  0.00  0.00  0.00  0.00
  YS02001610YS02001613    1.00   0.09  0.00  0.00  0.91  0.00  0.00  0.00  0.00  0.00
  YS02001613YS02001616    1.00   0.09  0.00  0.00  0.91  0.00  0.00  0.00  0.00  0.00
  YS02001616YS02001619    1.00   0.09  0.00  0.00  0.91  0.00  0.00  0.00  0.00  0.00
  YS02001619YS02001622    1.00   0.09  0.00  0.00  0.90  0.01  0.00  0.00  0.26  0.00
  YS02001622YS02001625    1.00   0.09  0.00  0.00  0.91  0.00  0.00  0.00  0.01  0.00
  YS02001625YS02001629    1.00   0.09  0.01  0.00  0.41  0.00  0.49  0.00  0.00  0.00
  YS02001629YS02163301    1.00   0.09  0.00  0.00  0.91  0.00  0.00  0.00  0.00  0.00
  YS02001633YS02163601    1.00   0.09  0.00  0.00  0.91  0.00  0.00  0.00  0.00  0.00
  YS02001641YS02001644    1.00   0.09  0.00  0.00  0.91  0.00  0.00  0.00  0.00  0.00
  YS02001644YS02001647    1.00   0.09  0.00  0.00  0.91  0.00  0.00  0.00  0.00  0.00
  YS02001647YS02001649    1.00   0.09  0.00  0.00  0.54  0.37  0.00  0.00  0.54  0.00
  YS02001649YS02001757    1.00   0.00  0.09  0.00  0.46  0.45  0.00  0.00  0.19  0.00
  YS02001652YS02001649    1.00   0.09  0.00  0.00  0.90  0.01  0.00  0.00  0.56  0.00
  YS02001655YS02001652    1.00   0.09  0.00  0.00  0.43  0.00  0.00  0.48  0.09  0.00
  YS02001658YS02001655    1.00   0.09  0.00  0.00  0.52  0.39  0.00  0.00  0.68  0.00
  YS02001661YS02001658    1.00   0.09  0.00  0.00  0.29  0.62  0.00  0.00  0.80  0.00
  YS02001664YS02001661    1.00   0.09  0.00  0.00  0.49  0.42  0.00  0.00  0.87  0.00
  YS02001745YS02001748    1.00   0.09  0.00  0.00  0.10  0.01  0.00  0.80  0.09  0.00
  YS02001748YS02001751    1.00   0.09  0.00  0.00  0.57  0.34  0.00  0.00  0.70  0.00
  YS02001751YS02001754    1.00   0.09  0.00  0.00  0.32  0.07  0.00  0.53  0.13  0.00
  YS02001754YS02001757    1.00   0.00  0.09  0.00  0.91  0.00  0.00  0.00  0.59  0.00
  YS02001757CaochengTiaoxuchi    1.00   0.00  0.00  0.00  0.79  0.21  0.00  0.00  0.75  0.00
  YS02001759YS02001757    1.00   0.00  0.09  0.00  0.91  0.00  0.00  0.00  0.51  0.00
  YS02001762YS02001759    1.00   0.09  0.00  0.00  0.91  0.00  0.00  0.00  0.01  0.00
  YS02001765YS02001762    1.00   0.09  0.00  0.00  0.91  0.00  0.00  0.00  0.56  0.00
  YS02001767YS02001765    1.00   0.09  0.00  0.00  0.91  0.00  0.00  0.00  0.00  0.00
  YS02001770YS02001767    1.00   0.09  0.00  0.00  0.91  0.00  0.00  0.00  0.00  0.00
  YS02001774YS02001770    1.00   0.09  0.00  0.00  0.82  0.00  0.09  0.00  0.00  0.00
  YS02001779YS02001774    1.00   0.09  0.34  0.00  0.57  0.00  0.00  0.00  0.57  0.00
  YS02001783YS02001784    1.00   0.10  0.00  0.00  0.90  0.01  0.00  0.00  0.54  0.00
  YS02001784YS02001785    1.00   0.10  0.00  0.00  0.90  0.00  0.00  0.00  0.35  0.00
  YS02001786YS02001788    1.00   0.10  0.00  0.00  0.43  0.47  0.00  0.00  0.00  0.00
  YS02001788YS02001790    1.00   0.11  0.00  0.00  0.10  0.79  0.00  0.00  0.59  0.00
  YS02001790YS02001791    1.00   0.11  0.00  0.00  0.00  0.89  0.00  0.00  0.20  0.00
  YS02001791YS02001793    1.00   0.11  0.00  0.00  0.00  0.89  0.00  0.00  0.00  0.00
  YS02001793JiankangQianchi    1.00   0.00  0.11  0.00  0.89  0.00  0.00  0.00  0.85  0.00
  YS02001882YS02001884    1.00   0.09  0.00  0.00  0.91  0.00  0.00  0.00  0.00  0.00
  YS02001884YS02001887    1.00   0.09  0.00  0.00  0.91  0.00  0.00  0.00  0.00  0.00
  YS02001887YS02001890    1.00   0.09  0.00  0.00  0.91  0.00  0.00  0.00  0.00  0.00
  YS02001890YS02001895    1.00   0.09  0.00  0.00  0.91  0.00  0.00  0.00  0.00  0.00
  YS02001895YS02001898    1.00   0.09  0.00  0.00  0.89  0.00  0.01  0.00  0.00  0.00
  YS02001898YS02001901    1.00   0.09  0.00  0.00  0.90  0.00  0.00  0.00  0.00  0.00
  YS02001901YS02001904    1.00   0.09  0.00  0.00  0.91  0.00  0.00  0.00  0.00  0.00
  YS02001904YS02001907    1.00   0.09  0.00  0.00  0.91  0.00  0.00  0.00  0.00  0.00
  YS02001907YS02006553    1.00   0.09  0.00  0.00  0.91  0.00  0.00  0.00  0.00  0.00
  YS02001910YS02001907    1.00   0.09  0.00  0.00  0.91  0.00  0.00  0.00  0.00  0.00
  YS02001915YS02001910    1.00   0.09  0.00  0.00  0.90  0.01  0.00  0.00  0.00  0.00
  YS02001918YS02001915    1.00   0.09  0.01  0.00  0.91  0.00  0.00  0.00  0.63  0.00
  YS02001920YS02001918    1.00   0.09  0.00  0.00  0.91  0.00  0.00  0.00  0.00  0.00
  YS02001923YS02001920    1.00   0.09  0.00  0.00  0.91  0.00  0.00  0.00  0.81  0.00
  YS02001926YS02001923    1.00   0.09  0.00  0.00  0.00  0.00  0.91  0.00  0.00  0.00
  YS02001929YS02001926    1.00   0.09  0.00  0.00  0.91  0.00  0.00  0.00  0.87  0.00
  YS02006553YS02006556    1.00   0.09  0.00  0.00  0.91  0.00  0.00  0.00  0.00  0.00
  YS02006556YS02006558    1.00   0.09  0.00  0.00  0.91  0.00  0.00  0.00  0.00  0.00
  YS02006558YS02006561    1.00   0.10  0.00  0.00  0.00  0.90  0.00  0.00  0.13  0.00
  YS02006561YS02001783    1.00   0.10  0.00  0.00  0.23  0.68  0.00  0.00  0.61  0.00
  YS02163301YS02001633    1.00   0.09  0.00  0.00  0.91  0.00  0.00  0.00  0.00  0.00
  YS02163601YS02164001    1.00   0.09  0.00  0.00  0.91  0.00  0.00  0.00  0.00  0.00
  YS02164001YS02001641    1.00   0.09  0.00  0.00  0.91  0.00  0.00  0.00  0.00  0.00
  
  
  *************************
  Conduit Surcharge Summary
  *************************
  
  ----------------------------------------------------------------------------
                                                           Hours        Hours 
                         --------- Hours Full --------   Above Full   Capacity
  Conduit                Both Ends  Upstream  Dnstream   Normal Flow   Limited
  ----------------------------------------------------------------------------
  WS02003072WS02003073        0.01      0.01      0.01      0.46         0.01
  WS02004401WS02004402        0.01      0.01      0.01      0.01         0.01
  WS02004402WS02004403        0.01      0.01      0.01      0.02         0.01
  WS02004404WS02004405        0.01      0.01      0.01      3.89         0.01
  WS02004405WS02004406        0.01      0.01      0.01      0.07         0.01
  WS02006109WS02006110        0.12      0.12      2.45      0.16         0.01
  WS02006110WS02006113        0.01      0.01      2.41      0.01         0.01
  WS02006111WS02006112        0.01      0.01      2.76      0.01         0.01
  WS02006112WS02006115        0.01      0.01      0.19      0.01         0.01
  WS02006113WS02006111        0.01      0.01      0.01      0.01         0.01
  WS02006115WS02006116        0.01      0.01      0.01      0.01         0.01
  WS02006116WS02004401        0.01      0.01      0.01      0.01         0.01
  WS02006228WS02006109        2.31      2.44      2.32      3.12         2.31
  WS02006229WS02006228        2.26      2.35      2.26      2.79         2.25
  WS02006230WS02006229        2.60      2.72      2.61      4.27         2.60
  WS02006231WS02006230        0.13      0.13      0.27      3.78         0.01
  WS02006232WS02006231        0.19      0.19      2.47      0.31         0.01
  WS02006234WS02006232        2.14      2.14      2.47      0.26         0.28
  WS02006235WS02006234        0.88      0.89      2.33      3.62         0.02
  WS02006238WS02006235        2.38      2.38      2.48      0.01         0.01
  WS02006239WS02006238        2.41      2.47      2.42      2.09         1.74
  WS02006240WS02006239        2.15      2.22      2.26      2.06         1.67
  WS02006242WS02006240        2.18      2.18      2.52      2.27         0.01
  WS02006243WS02006242        1.95      1.96      2.33      0.01         0.08
  WS02006245WS02006243        1.91      1.94      1.92      1.96         1.64
  WS02006247WS02006245        1.91      1.96      1.91      3.48         1.89
  WS02006248WS02006247        1.91      1.91      1.94      0.01         0.09
  WS02006249WS02006248        1.89      1.89      1.92      3.36         0.01
  WS02006251WS02006249        1.92      1.95      1.92      2.17         1.79
  WS02006252WS02006251        2.21      2.21      2.43      2.22         0.01
  WS02006256WS02006235        3.61      3.67      7.42      0.94         0.03
  YS02001580YS02001583        0.16      0.16      0.59      0.01         0.01
  YS02001583YS02001586        0.20      0.20      1.38      0.01         0.01
  YS02001586YS02001590        1.39      1.39      1.44      0.01         0.01
  YS02001590YS02001593        1.45      1.45      1.46      1.44         0.01
  YS02001593YS02001596        1.46      1.46      1.65      0.01         0.01
  YS02001596YS02001600        1.75      1.75      1.98      0.01         0.01
  YS02001600YS02001601        2.01      2.01      2.16      0.01         0.01
  YS02001601YS02001602        2.10      2.10      2.19      2.01         0.01
  YS02001602YS02001605        2.08      2.08      2.10      2.71         0.01
  YS02001605YS02001607        2.04      2.08      2.04      2.14         2.04
  YS02001607YS02001610        1.42      1.42      1.44      0.01         0.01
  YS02001610YS02001613        1.41      1.41      1.44      0.01         0.01
  YS02001613YS02001616        1.30      1.30      1.41      0.01         0.01
  YS02001616YS02001619        1.19      1.19      1.30      0.01         0.01
  YS02001619YS02001622        1.13      1.19      1.13      1.47         1.13
  YS02001622YS02001625        1.13      1.13      1.51      0.01         0.01
  YS02001625YS02001629        0.66      0.66      1.51      0.01         0.01
  YS02001629YS02163301        1.50      1.50      1.50      1.33         1.17
  YS02001633YS02163601        1.52      1.52      1.55      1.38         1.38
  YS02001641YS02001644        1.42      1.45      1.42      2.19         1.42
  YS02001644YS02001647        0.02      0.02      1.42      0.01         0.01
  YS02001647YS02001649        0.02      0.02      0.67      0.01         0.01
  YS02001649YS02001757        0.67      0.67      0.71      0.01         0.01
  YS02001652YS02001649        0.01      0.01      0.67      0.01         0.01
  YS02001754YS02001757        0.01      0.01      0.71      0.01         0.01
  YS02001757CaochengTiaoxuchi        0.71      0.71      1.31      0.01         0.01
  YS02001759YS02001757        0.62      0.62      0.71      0.01         0.01
  YS02001762YS02001759        0.54      0.54      0.62      0.01         0.01
  YS02001765YS02001762        0.01      0.01      0.54      0.01         0.01
  YS02001770YS02001767        0.01      0.01      0.01      0.23         0.01
  YS02001774YS02001770        0.01      0.01      0.45      0.01         0.01
  YS02001779YS02001774        0.01      0.01      0.45      0.01         0.01
  YS02001783YS02001784        0.01      0.01      0.01      0.91         0.01
  YS02001784YS02001785        0.01      0.01      0.01      1.85         0.01
  YS02001786YS02001788        0.01      0.01      0.01      1.60         0.01
  YS02001793JiankangQianchi        0.01      0.01      6.66      0.01         0.01
  YS02001890YS02001895        0.01      0.01      0.08      0.01         0.01
  YS02001904YS02001907        0.01      0.01      1.56      0.01         0.01
  YS02001907YS02006553        1.88      1.88      1.93      0.01         0.01
  YS02001910YS02001907        0.10      0.10      1.51      0.01         0.01
  YS02001915YS02001910        0.01      0.01      0.10      0.01         0.01
  YS02006553YS02006556        0.73      0.73      1.55      0.01         0.01
  YS02006556YS02006558        1.24      1.24      1.59      0.01         0.01
  YS02006558YS02006561        0.01      0.64      0.01      1.75         0.01
  YS02163301YS02001633        1.50      1.50      1.54      0.01         0.01
  YS02163601YS02164001        1.46      1.46      1.55      0.30         0.01
  YS02164001YS02001641        1.45      1.46      1.45      1.69         1.45
  
  
  ***************
  Pumping Summary
  ***************
  
  ---------------------------------------------------------------------------------------------------------
                                                  Min       Avg       Max     Total     Power    % Time Off
                        Percent   Number of      Flow      Flow      Flow    Volume     Usage    Pump Curve
  Pump                 Utilized   Start-Ups       LPS       LPS       LPS  10^6 ltr     Kw-hr    Low   High
  ---------------------------------------------------------------------------------------------------------
  CC-R1                   32.17          16      0.00    683.00    683.00     6.328    111.84    0.0   52.0
  CC-R2                   22.57          21      0.00    683.00    683.00     4.440     78.86    0.0   48.7
  CC-S1                   34.65          13      0.00    200.00    200.00     1.996     12.44    0.0    0.0
  CC-S2                   40.42         227      0.00    200.00    200.00     2.328     14.76    0.0    0.0
  JK-R1                    7.57         180      0.00   1000.00   1000.00     2.180     14.86    0.0    0.0
  JK-R2                    7.20         178      0.00   1000.00   1000.00     2.074     13.93    0.0    0.0
  JK-S                    11.97          41      0.00    300.00    300.00     1.034     17.38    0.0    0.0
  

  Analysis begun on:  Thu Sep  7 18:10:43 2023
  Analysis ended on:  Thu Sep  7 18:11:21 2023
  Total elapsed time: 00:00:38