
  OWA STORM WATER MANAGEMENT MODEL - VERSION v5.1.14 (OWA 2022-07-31)
  --------------------------------------------------------------

  WARNING 04: minimum elevation drop used for Conduit WS02004404WS02004405
  WARNING 03: negative offset ignored for Link YS02001904YS02001907
  
  *********************************************************
  NOTE: The summary statistics displayed in this report are
  based on results found at every computational time step,  
  not just on results from each reporting time step.
  *********************************************************
  
  ****************
  Analysis Options
  ****************
  Flow Units ............... LPS
  Process Models:
    Rainfall/Runoff ........ YES
    RDII ................... NO
    Snowmelt ............... NO
    Groundwater ............ NO
    Flow Routing ........... YES
    Ponding Allowed ........ NO
    Water Quality .......... NO
  Infiltration Method ...... HORTON
  Flow Routing Method ...... DYNWAVE
  Surcharge Method ......... EXTRAN
  Starting Date ............ 08/28/2015 08:00:00
  Ending Date .............. 08/28/2015 16:00:00
  Antecedent Dry Days ...... 8.0
  Report Time Step ......... 00:01:00
  Wet Time Step ............ 00:01:00
  Dry Time Step ............ 00:01:00
  Routing Time Step ........ 30.00 sec
  Variable Time Step ....... YES
  Maximum Trials ........... 8
  Number of Threads ........ 4
  Head Tolerance ........... 0.001500 m
  
  
  **************************        Volume         Depth
  Runoff Quantity Continuity     hectare-m            mm
  **************************     ---------       -------
  Total Precipitation ......         7.286       120.274
  Evaporation Loss .........         0.000         0.000
  Infiltration Loss ........         0.256         4.221
  Surface Runoff ...........         6.970       115.066
  Final Storage ............         0.061         1.009
  Continuity Error (%) .....        -0.019
  
  
  **************************        Volume        Volume
  Flow Routing Continuity        hectare-m      10^6 ltr
  **************************     ---------     ---------
  Dry Weather Inflow .......         0.630         6.296
  Wet Weather Inflow .......         6.969        69.691
  Groundwater Inflow .......         0.000         0.000
  RDII Inflow ..............         0.000         0.000
  External Inflow ..........         0.105         1.045
  External Outflow .........         3.870        38.697
  Flooding Loss ............         3.831        38.308
  Evaporation Loss .........         0.000         0.000
  Exfiltration Loss ........         0.000         0.000
  Initial Stored Volume ....         0.303         3.031
  Final Stored Volume ......         0.321         3.209
  Continuity Error (%) .....        -0.189
  
  
  *************************
  Highest Continuity Errors
  *************************
  Node YS02001583 (-10.66%)
  Node YS02001884 (4.49%)
  Node YS02001774 (2.17%)
  Node WS02006256 (-1.17%)
  Node WS02006252 (-1.15%)
  
  
  ***************************
  Time-Step Critical Elements
  ***************************
  Link WS02006280WS02006229 (39.42%)
  Link YS02001791YS02001793 (19.93%)
  Link WS02006252WS02006251 (12.88%)
  Link WS02006238WS02006235 (5.64%)
  Link YS02006556YS02006558 (5.54%)
  
  
  ********************************
  Highest Flow Instability Indexes
  ********************************
  Link WS02006238WS02006235 (41)
  Link WS02006252WS02006251 (41)
  Link WS02004404WS02004405 (38)
  Link WS02006113WS02006111 (38)
  Link WS02006235WS02006234 (36)
  
  
  *************************
  Routing Time Step Summary
  *************************
  Minimum Time Step           :     0.01 sec
  Average Time Step           :     2.36 sec
  Maximum Time Step           :     7.27 sec
  Percent in Steady State     :     0.00
  Average Iterations per Step :     4.63
  Percent Not Converging      :    25.13
  
  
  ***************************
  Subcatchment Runoff Summary
  ***************************
  
  ------------------------------------------------------------------------------------------------------------------------------
                            Total      Total      Total      Total     Imperv       Perv      Total       Total     Peak  Runoff
                           Precip      Runon       Evap      Infil     Runoff     Runoff     Runoff      Runoff   Runoff   Coeff
  Subcatchment                 mm         mm         mm         mm         mm         mm         mm    10^6 ltr      LPS
  ------------------------------------------------------------------------------------------------------------------------------
  sub0                     120.27       0.00       0.00       1.05     110.63       7.37     118.00        0.10    22.60   0.981
  sub1                     120.27       0.00       0.00       1.82     105.80      11.41     117.22        0.78   184.04   0.975
  sub10                    120.27       0.00       0.00       1.28     109.38       8.34     117.72        1.30   306.31   0.979
  sub11                    120.27       0.00       0.00       1.26     109.40       8.37     117.77        1.37   323.33   0.979
  sub12                    120.27       0.00       0.00       2.04     103.48      13.60     117.08        1.02   242.93   0.973
  sub14                    120.27       0.00       0.00       1.44     108.20       9.39     117.59        1.12   264.53   0.978
  sub15                    120.27       0.00       0.00       5.62      83.23      30.47     113.69        1.96   455.56   0.945
  sub16                    120.27       0.00       0.00       5.83      79.69      33.87     113.56        1.19   282.42   0.944
  sub17                    120.27       0.00       0.00       5.68      80.88      32.81     113.68        0.98   231.28   0.945
  sub2                     120.27       0.00       0.00       7.97      74.87      36.53     111.40        1.04   225.82   0.926
  sub22                    120.27       0.00       0.00       8.49      67.78      43.23     111.02        7.01  1586.85   0.923
  sub23                    120.27       0.00       0.00       6.94      74.92      37.56     112.48        5.37  1248.09   0.935
  sub3                     120.27       0.00       0.00       8.66      74.83      35.84     110.67        2.49   518.54   0.920
  sub4                     120.27       0.00       0.00       2.02     105.62      11.21     116.83        2.44   553.78   0.971
  sub5                     120.27       0.00       0.00       1.11     110.56       7.31     117.87        1.34   314.52   0.980
  sub60                    120.27       0.00       0.00       1.93     104.65      12.51     117.16        1.54   364.86   0.974
  sub61                    120.27       0.00       0.00       2.80      98.71      17.65     116.36        2.14   507.66   0.967
  sub62                    120.27       0.00       0.00       1.28     109.37       8.34     117.71        3.23   760.35   0.979
  sub63                    120.27       0.00       0.00       5.17      84.44      29.71     114.15        2.59   613.09   0.949
  sub64                    120.27       0.00       0.00       2.61     101.03      15.43     116.46        2.80   658.65   0.968
  sub65                    120.27       0.00       0.00       2.26     103.39      13.37     116.76        3.21   754.23   0.971
  sub66                    120.27       0.00       0.00       6.34      84.32      28.54     112.86        5.26  1146.62   0.938
  sub67                    120.27       0.00       0.00       1.23     109.43       8.40     117.82        2.19   518.26   0.980
  sub68                    120.27       0.00       0.00       2.32     102.26      14.52     116.78        3.21   761.56   0.971
  sub69                    120.27       0.00       0.00       2.11     102.12      15.94     118.06        4.37  1012.02   0.982
  sub7                     120.27       0.00       0.00       1.41     108.22       9.41     117.64        0.40    93.77   0.978
  sub70                    120.27       0.00       0.00       6.90      79.21      34.00     113.21        3.27   673.09   0.941
  sub71                    120.27       0.00       0.00       1.32     109.33       8.30     117.63        3.08   720.92   0.978
  sub72                    120.27       0.00       0.00       1.18     110.45       7.24     117.69        1.62   374.48   0.979
  sub8                     120.27       0.00       0.00       1.43     108.21       9.40     117.61        0.75   177.64   0.978
  sub9                     120.27       0.00       0.00       1.43     108.21       9.39     117.60        0.57   133.68   0.978
  
  
  ******************
  Node Depth Summary
  ******************
  
  ---------------------------------------------------------------------------------
                                 Average  Maximum  Maximum  Time of Max    Reported
                                   Depth    Depth      HGL   Occurrence   Max Depth
  Node                 Type       Meters   Meters   Meters  days hr:min      Meters
  ---------------------------------------------------------------------------------
  HS02004478           JUNCTION     0.44     1.56    10.79     0  01:29        1.56
  HS02004479           JUNCTION     0.53     1.72    10.92     0  01:09        1.69
  HS02004480           JUNCTION     0.49     1.67    10.91     0  01:09        1.66
  HS02004770           JUNCTION     0.47     1.42    11.25     0  01:08        1.42
  HS02004777           JUNCTION     0.49     1.48    11.28     0  01:07        1.46
  HS02004785           JUNCTION     0.38     1.49    11.39     0  01:08        1.33
  HS02004788           JUNCTION     0.35     1.42    11.32     0  01:08        1.33
  HS02004792           JUNCTION     0.46     1.60    11.12     0  01:07        1.60
  HS02004799           JUNCTION     0.57     1.76    10.97     0  01:09        1.76
  HS02004802           JUNCTION     0.54     1.80    10.92     0  01:12        1.80
  HS02004807           JUNCTION     0.52     1.92    11.09     0  01:12        1.92
  HS02004817           JUNCTION     0.82     2.43    11.28     0  01:12        2.43
  HS02004824           JUNCTION     0.38     2.01    11.41     0  01:12        2.01
  HS02004830           JUNCTION     0.37     2.01    11.47     0  01:12        2.01
  HS02004837           JUNCTION     0.32     1.93    11.51     0  01:12        1.93
  HS02004842           JUNCTION     0.60     2.22    11.49     0  01:11        2.22
  HS02004848           JUNCTION     0.30     2.07    11.67     0  01:11        1.93
  HS02004852           JUNCTION     0.31     2.12    11.63     0  01:11        2.00
  HS02004856           JUNCTION     0.36     2.07    11.50     0  01:11        2.07
  HS02004862           JUNCTION     0.33     2.00    11.38     0  01:11        2.00
  HS02004870           JUNCTION     0.32     2.10    11.39     0  01:11        2.02
  HS02004876           JUNCTION     0.40     2.12    11.15     0  01:12        2.12
  HS02004881           JUNCTION     0.33     1.87    10.90     0  01:12        1.87
  HS02004901           JUNCTION     0.48     1.42    11.24     0  01:08        1.42
  WS02001211           JUNCTION     0.65     0.87     5.71     0  01:18        0.86
  WS02001212           JUNCTION     0.40     0.65     5.71     0  01:17        0.64
  WS02001213           JUNCTION     0.62     0.98     5.74     0  01:17        0.87
  WS02003059           JUNCTION     0.69     0.98     5.67     0  01:19        0.98
  WS02003060           JUNCTION     0.42     0.70     5.63     0  01:20        0.69
  WS02003066           JUNCTION     0.26     0.46     6.02     0  01:12        0.45
  WS02003067           JUNCTION     0.58     0.96     6.28     0  01:12        0.91
  WS02003069           JUNCTION     0.48     0.78     5.36     0  01:21        0.78
  WS02003072           JUNCTION     0.53     0.82     5.19     0  01:19        0.81
  WS02003073           JUNCTION     0.32     0.52     4.58     0  01:20        0.52
  WS02004138           JUNCTION     0.13     0.14     7.39     0  00:29        0.14
  WS02004139           JUNCTION     0.58     0.79     5.70     0  01:16        0.78
  WS02004401           JUNCTION     0.91     2.36     8.36     0  01:09        1.80
  WS02004402           JUNCTION     0.91     2.23     8.19     0  01:09        1.74
  WS02004403           JUNCTION     0.90     2.17     8.10     0  01:09        1.68
  WS02004404           JUNCTION     0.95     2.62     8.47     0  01:09        1.68
  WS02004405           JUNCTION     0.94     3.10     8.95     0  01:09        1.64
  WS02004406           JUNCTION     0.91     3.26     9.09     0  01:09        1.53
  WS02004407           JUNCTION     0.36     0.89     7.20     0  01:33        0.89
  WS02004409           JUNCTION     0.65     1.36     7.13     0  01:33        1.36
  WS02004410           JUNCTION     0.64     1.42     7.14     0  01:12        1.27
  WS02004411           JUNCTION     0.63     1.44     7.12     0  01:12        1.19
  WS02004412           JUNCTION     0.62     1.32     6.96     0  01:12        1.09
  WS02004413           JUNCTION     0.73     2.17     7.64     0  01:11        1.14
  WS02006109           JUNCTION     1.27     2.64     9.26     0  01:09        2.64
  WS02006110           JUNCTION     1.15     2.76     9.34     0  01:07        2.37
  WS02006111           JUNCTION     0.64     2.05     8.76     0  01:09        1.68
  WS02006112           JUNCTION     1.17     2.68     8.56     0  01:08        2.30
  WS02006113           JUNCTION     0.72     2.10     8.99     0  01:09        1.78
  WS02006115           JUNCTION     0.87     2.34     8.48     0  01:09        1.89
  WS02006116           JUNCTION     0.92     2.34     8.38     0  01:09        1.88
  WS02006228           JUNCTION     1.38     3.03     9.68     0  01:09        3.03
  WS02006229           JUNCTION     1.42     3.25     9.94     0  01:09        3.25
  WS02006230           JUNCTION     1.27     2.65     9.39     0  01:07        2.65
  WS02006231           JUNCTION     0.97     2.24     9.36     0  01:07        2.21
  WS02006232           JUNCTION     1.03     2.18     9.22     0  01:07        2.18
  WS02006234           JUNCTION     0.89     1.96     9.12     0  01:08        1.96
  WS02006235           JUNCTION     0.89     2.00     9.16     0  01:08        2.00
  WS02006238           JUNCTION     0.90     2.15     9.29     0  01:08        2.15
  WS02006239           JUNCTION     0.82     2.03     9.24     0  01:08        1.82
  WS02006240           JUNCTION     0.75     2.10     9.39     0  01:09        2.10
  WS02006242           JUNCTION     0.77     1.55     8.82     0  01:09        1.55
  WS02006243           JUNCTION     0.65     1.48     8.90     0  01:09        1.41
  WS02006245           JUNCTION     0.62     1.56     9.04     0  01:09        1.31
  WS02006247           JUNCTION     0.62     1.47     8.97     0  01:09        1.25
  WS02006248           JUNCTION     0.56     1.10     8.69     0  01:08        1.10
  WS02006249           JUNCTION     0.57     1.09     8.69     0  01:07        1.09
  WS02006251           JUNCTION     0.86     2.20     9.87     0  01:12        2.20
  WS02006252           JUNCTION     0.63     1.50     9.74     0  00:00        1.50
  WS02006253           JUNCTION     1.01     3.08    10.72     0  01:12        3.08
  WS02006256           JUNCTION     1.19     2.35     9.28     0  00:00        2.35
  WS02006280           JUNCTION     0.57     1.83    10.10     0  01:09        1.78
  WS02006284           JUNCTION     0.79     2.08    10.48     0  01:09        1.92
  WS02006287           JUNCTION     0.53     1.72    10.67     0  01:33        1.71
  WSF200               JUNCTION     0.26     0.60     5.84     0  01:12        0.53
  YS02001580           JUNCTION     0.23     1.05     9.59     0  01:09        0.77
  YS02001583           JUNCTION     0.27     1.14     9.64     0  01:09        0.82
  YS02001586           JUNCTION     0.40     1.13     9.30     0  01:08        1.13
  YS02001590           JUNCTION     0.53     1.40     9.26     0  01:07        1.37
  YS02001593           JUNCTION     0.46     1.46     9.32     0  01:07        1.29
  YS02001596           JUNCTION     0.61     1.75     9.17     0  01:07        1.65
  YS02001600           JUNCTION     0.71     1.87     9.00     0  01:07        1.86
  YS02001601           JUNCTION     0.90     2.06     8.90     0  01:07        2.06
  YS02001602           JUNCTION     0.79     1.87     8.77     0  01:10        1.87
  YS02001605           JUNCTION     0.73     1.78     8.68     0  01:10        1.78
  YS02001607           JUNCTION     0.67     1.68     8.53     0  01:10        1.65
  YS02001610           JUNCTION     0.71     1.68     8.48     0  01:10        1.68
  YS02001613           JUNCTION     0.67     1.70     8.54     0  01:10        1.67
  YS02001616           JUNCTION     0.61     1.61     8.52     0  01:10        1.61
  YS02001619           JUNCTION     0.58     1.61     8.54     0  01:10        1.60
  YS02001622           JUNCTION     0.57     1.59     8.49     0  01:10        1.57
  YS02001625           JUNCTION     0.82     1.78     8.38     0  01:10        1.78
  YS02001629           JUNCTION     0.72     1.85     8.40     0  01:10        1.85
  YS02001633           JUNCTION     0.79     2.01     8.46     0  01:14        1.98
  YS02001641           JUNCTION     0.75     1.95     8.38     0  01:22        1.94
  YS02001644           JUNCTION     0.74     1.92     8.35     0  01:15        1.92
  YS02001647           JUNCTION     0.52     1.70     8.31     0  01:25        1.69
  YS02001649           JUNCTION     0.58     1.88     8.27     0  01:25        1.87
  YS02001652           JUNCTION     0.45     1.69     8.29     0  01:15        1.68
  YS02001655           JUNCTION     0.36     1.74     8.59     0  02:26        1.45
  YS02001658           JUNCTION     0.26     1.43     8.57     0  01:15        1.17
  YS02001661           JUNCTION     0.23     0.92     8.32     0  01:32        0.92
  YS02001664           JUNCTION     0.09     0.30     8.22     0  01:32        0.30
  YS02001745           JUNCTION     0.12     0.66     8.17     0  01:25        0.65
  YS02001748           JUNCTION     0.24     1.46     8.53     0  01:25        1.20
  YS02001751           JUNCTION     0.30     1.51     8.38     0  01:14        1.31
  YS02001754           JUNCTION     0.40     1.64     8.24     0  01:25        1.55
  YS02001757           JUNCTION     0.59     1.91     8.17     0  01:25        1.89
  YS02001759           JUNCTION     0.53     1.88     8.24     0  01:25        1.87
  YS02001762           JUNCTION     0.52     1.88     8.28     0  01:25        1.86
  YS02001765           JUNCTION     0.49     1.86     8.31     0  01:25        1.83
  YS02001767           JUNCTION     0.49     1.85     8.34     0  01:25        1.84
  YS02001770           JUNCTION     0.50     1.91     8.40     0  01:25        1.90
  YS02001774           JUNCTION     0.57     1.97     8.39     0  01:25        1.97
  YS02001779           JUNCTION     0.39     1.68     8.37     0  01:13        1.68
  YS02001783           JUNCTION     0.40     1.26     7.40     0  01:12        1.22
  YS02001784           JUNCTION     0.40     1.13     7.20     0  01:12        1.11
  YS02001786           JUNCTION     0.32     0.88     6.91     0  01:12        0.87
  YS02001788           JUNCTION     0.23     0.62     6.60     0  01:12        0.62
  YS02001790           JUNCTION     0.27     0.72     6.37     0  01:33        0.72
  YS02001791           JUNCTION     0.17     0.44     5.91     0  01:15        0.44
  YS02001793           JUNCTION     0.09     0.21     5.04     0  01:27        0.21
  YS02001882           JUNCTION     0.50     1.80     8.52     0  01:10        1.62
  YS02001884           JUNCTION     0.59     1.80     8.41     0  01:10        1.73
  YS02001887           JUNCTION     0.66     1.82     8.36     0  01:12        1.80
  YS02001890           JUNCTION     0.69     1.81     8.32     0  01:12        1.81
  YS02001895           JUNCTION     0.47     1.57     8.32     0  01:12        1.56
  YS02001898           JUNCTION     0.47     1.59     8.32     0  01:12        1.56
  YS02001901           JUNCTION     0.58     1.70     8.31     0  01:12        1.68
  YS02001904           JUNCTION     0.56     1.66     8.29     0  01:12        1.63
  YS02001907           JUNCTION     0.87     1.96     8.25     0  01:12        1.96
  YS02001910           JUNCTION     0.68     1.99     8.50     0  01:12        1.94
  YS02001915           JUNCTION     0.50     1.95     8.67     0  01:12        1.88
  YS02001918           JUNCTION     0.32     1.81     8.88     0  01:12        1.81
  YS02001920           JUNCTION     0.40     2.14     9.15     0  01:13        2.14
  YS02001923           JUNCTION     0.25     2.03     9.29     0  01:13        2.03
  YS02001926           JUNCTION     0.26     1.90     9.35     0  01:13        1.90
  YS02001929           JUNCTION     0.16     1.78     9.47     0  01:12        1.78
  YS02006553           JUNCTION     0.87     1.97     8.26     0  01:12        1.97
  YS02006556           JUNCTION     0.84     1.93     8.24     0  01:27        1.93
  YS02006558           JUNCTION     0.88     1.98     8.25     0  01:16        1.98
  YS02006561           JUNCTION     0.26     0.96     7.62     0  01:12        0.88
  YS02163301           JUNCTION     0.74     1.92     8.43     0  01:14        1.90
  YS02163601           JUNCTION     0.82     2.03     8.43     0  01:14        2.01
  YS02164001           JUNCTION     0.75     1.95     8.40     0  01:14        1.94
  YSB1154              JUNCTION     0.67     1.98    11.04     0  01:09        1.88
  YSB1171              JUNCTION     0.80     1.95    10.85     0  01:09        1.95
  YSB1174              JUNCTION     0.62     1.84    10.95     0  01:09        1.79
  YSB6556              JUNCTION     0.56     1.80    10.97     0  01:09        1.72
  CC-1                 OUTFALL      0.00     0.00     0.00     0  00:00        0.00
  CC-2                 OUTFALL      0.00     0.00     0.00     0  00:00        0.00
  JK-1                 OUTFALL      0.00     0.00     0.00     0  00:00        0.00
  JK-2                 OUTFALL      0.00     0.00     0.00     0  00:00        0.00
  WSC                  OUTFALL      0.32     0.51     1.18     0  01:21        0.51
  CC-storage           STORAGE      0.82     1.58     7.08     0  02:11        1.58
  JK-storage           STORAGE      1.23     2.99     3.79     0  00:00        2.35
  XR-storage           STORAGE      7.76     9.26     7.26     0  08:00        9.26
  
  
  *******************
  Node Inflow Summary
  *******************
  
  -------------------------------------------------------------------------------------------------
                                  Maximum  Maximum                  Lateral       Total        Flow
                                  Lateral    Total  Time of Max      Inflow      Inflow     Balance
                                   Inflow   Inflow   Occurrence      Volume      Volume       Error
  Node                 Type           LPS      LPS  days hr:min    10^6 ltr    10^6 ltr     Percent
  -------------------------------------------------------------------------------------------------
  HS02004478           JUNCTION      0.00  2456.23     0  01:09           0        15.3      -0.009
  HS02004479           JUNCTION      0.00   443.25     0  01:11           0        1.33       0.064
  HS02004480           JUNCTION      0.00  2287.11     0  01:09           0        11.4      -0.007
  HS02004770           JUNCTION   1248.09  1248.09     0  01:33        5.36        5.64       0.052
  HS02004777           JUNCTION      0.03   820.70     0  01:08    0.000864        3.13       0.171
  HS02004785           JUNCTION      0.15   825.22     0  01:08     0.00432        3.13       0.019
  HS02004788           JUNCTION    457.23  1127.19     0  01:08           2        5.13      -0.007
  HS02004792           JUNCTION   1587.13  2341.84     0  01:33        7.02        12.2       0.001
  HS02004799           JUNCTION    264.53  1914.00     0  01:09        1.12        10.3       0.059
  HS02004802           JUNCTION      0.00  1078.71     0  01:33           0        4.07       0.084
  HS02004807           JUNCTION    323.33  1078.64     0  01:33        1.37        4.11       0.108
  HS02004817           JUNCTION      0.60   757.69     0  01:33      0.0173         2.8       0.604
  HS02004824           JUNCTION    553.83   757.09     0  01:33        2.44        3.18       0.017
  HS02004830           JUNCTION      0.15   719.74     0  01:10     0.00432        1.14       0.095
  HS02004837           JUNCTION    312.66   971.42     0  01:10        1.48        2.05       0.025
  HS02004842           JUNCTION      0.00   902.88     0  01:10           0        1.48       0.893
  HS02004848           JUNCTION    518.54  1111.90     0  01:10        2.49        3.85      -0.009
  HS02004852           JUNCTION      0.00  1058.85     0  01:10           0        3.75      -0.002
  HS02004856           JUNCTION    133.68  1112.01     0  01:11       0.566        4.31       0.013
  HS02004862           JUNCTION    226.02  1222.79     0  01:11        1.04        5.36      -0.012
  HS02004870           JUNCTION    177.64  1374.26     0  01:11       0.751        6.11      -0.014
  HS02004876           JUNCTION    184.04  1341.49     0  01:33       0.779        6.89       0.007
  HS02004881           JUNCTION     93.77  1434.47     0  01:33       0.396        7.28       0.008
  HS02004901           JUNCTION    282.42   548.21     0  01:32        1.19        2.19       0.088
  WS02001211           JUNCTION      7.35   379.02     0  01:16       0.212        5.45       0.608
  WS02001212           JUNCTION      0.00   516.82     0  01:14           0        5.43       0.289
  WS02001213           JUNCTION      0.00   479.66     0  01:13           0        5.42       0.318
  WS02003059           JUNCTION      0.00   547.52     0  01:13           0        5.43       0.586
  WS02003060           JUNCTION     16.53  1683.06     0  01:12       0.476        16.9       0.087
  WS02003066           JUNCTION      0.00  1280.55     0  01:22           0          11       0.014
  WS02003067           JUNCTION      0.00  1278.61     0  01:31           0          11       0.038
  WS02003069           JUNCTION      0.32  1518.68     0  01:20     0.00922        16.8       0.093
  WS02003072           JUNCTION      0.00  1509.25     0  01:21           0        16.8       0.125
  WS02003073           JUNCTION      1.82  1508.37     0  01:20      0.0524        16.9       0.127
  WS02004138           JUNCTION      0.00   380.00     0  00:00           0        5.25       0.053
  WS02004139           JUNCTION      0.32   333.43     0  01:15     0.00924        5.26       0.509
  WS02004401           JUNCTION      0.00  1445.68     0  01:09           0        11.1       0.096
  WS02004402           JUNCTION      0.00  1395.30     0  01:09           0        11.1       0.090
  WS02004403           JUNCTION      0.00  1390.19     0  01:09           0        11.1       0.092
  WS02004404           JUNCTION      0.16  1402.18     0  01:09     0.00467        11.1       0.081
  WS02004405           JUNCTION      0.04  1432.77     0  01:09      0.0011        11.1       0.117
  WS02004406           JUNCTION      0.00  1539.09     0  01:09           0        11.1       0.176
  WS02004407           JUNCTION      0.00  1402.06     0  01:09           0        11.1       0.014
  WS02004409           JUNCTION      0.00  1458.82     0  01:10           0        11.1       0.035
  WS02004410           JUNCTION      0.00  1490.18     0  01:10           0        11.1       0.039
  WS02004411           JUNCTION      0.00  1358.66     0  01:11           0        11.1       0.055
  WS02004412           JUNCTION      0.00  1278.62     0  01:31           0        11.1       0.070
  WS02004413           JUNCTION      0.00  1300.79     0  01:11           0        11.1       0.102
  WS02006109           JUNCTION      1.23  1324.97     0  01:09      0.0354        10.9       0.086
  WS02006110           JUNCTION      0.00  1328.14     0  01:09           0        10.2       0.078
  WS02006111           JUNCTION      0.00  1336.95     0  01:09           0        10.2       0.007
  WS02006112           JUNCTION    231.28  1393.02     0  01:09       0.975        11.2       0.165
  WS02006113           JUNCTION      0.00  1330.41     0  01:09           0        10.2       0.020
  WS02006115           JUNCTION      0.00  1400.57     0  01:09           0        11.1       0.045
  WS02006116           JUNCTION      0.00  1422.63     0  01:09           0        11.1       0.025
  WS02006228           JUNCTION      0.00  1318.36     0  01:09           0        10.9       0.036
  WS02006229           JUNCTION      0.00  2286.62     0  01:33           0        16.6       0.038
  WS02006230           JUNCTION     10.28  1016.40     0  01:33       0.296        7.05       0.119
  WS02006231           JUNCTION      0.00   762.61     0  01:08           0        4.21      -0.080
  WS02006232           JUNCTION      0.00   761.91     0  01:08           0        4.19       0.086
  WS02006234           JUNCTION      0.00   761.75     0  01:08           0        4.16      -0.005
  WS02006235           JUNCTION      0.00   766.66     0  01:08           0        3.85      -0.095
  WS02006238           JUNCTION      0.00   725.29     0  01:08           0        3.65      -0.099
  WS02006239           JUNCTION      0.00   858.88     0  01:08           0        3.62      -0.100
  WS02006240           JUNCTION      0.00  1068.53     0  01:08           0        3.59      -0.108
  WS02006242           JUNCTION      0.00   626.19     0  01:09           0         3.6       0.038
  WS02006243           JUNCTION      0.00   607.91     0  01:08           0        2.73      -0.020
  WS02006245           JUNCTION      0.00   635.30     0  01:08           0        2.74       0.445
  WS02006247           JUNCTION      0.00   639.61     0  01:08           0        2.74       0.008
  WS02006248           JUNCTION      0.00   648.32     0  01:08           0        3.22       0.025
  WS02006249           JUNCTION      0.00  1341.59     0  01:12           0        9.88       0.073
  WS02006251           JUNCTION      0.08  1456.99     0  01:33     0.00222        10.1       0.025
  WS02006252           JUNCTION      0.00   722.77     0  01:32           0         5.1      -1.141
  WS02006253           JUNCTION     22.60  1457.36     0  01:32      0.0955        7.42       0.028
  WS02006256           JUNCTION      0.00   450.00     0  00:11           0       0.692      -1.153
  WS02006280           JUNCTION      0.00  2284.94     0  01:33           0        15.3      -0.021
  WS02006284           JUNCTION      0.10  2323.24     0  01:09     0.00275        15.3      -0.020
  WS02006287           JUNCTION      0.00  2452.28     0  01:08           0        15.3       0.072
  WSF200               JUNCTION      0.00  1280.62     0  01:17           0          11       0.008
  YS02001580           JUNCTION      0.00   151.85     0  01:09           0     0.00491      -2.237
  YS02001583           JUNCTION      0.00   253.95     0  01:09           0      0.0153      -9.631
  YS02001586           JUNCTION    673.09   673.21     0  01:35        3.27        3.28       0.066
  YS02001590           JUNCTION      0.00   318.30     0  02:29           0        2.34      -0.041
  YS02001593           JUNCTION      0.00   318.24     0  02:29           0        2.34       0.014
  YS02001596           JUNCTION      0.00   318.02     0  01:28           0        2.34      -0.023
  YS02001600           JUNCTION      0.00   318.12     0  01:25           0        2.34       0.030
  YS02001601           JUNCTION   1012.02  1329.51     0  01:32        4.37        6.71       0.011
  YS02001602           JUNCTION      0.00   605.86     0  01:09           0        3.47       0.016
  YS02001605           JUNCTION      0.00   605.89     0  01:09           0        3.16       0.025
  YS02001607           JUNCTION      0.00   605.89     0  01:09           0        3.16       0.043
  YS02001610           JUNCTION      0.00   611.47     0  01:35           0        3.62       0.071
  YS02001613           JUNCTION      0.00   572.47     0  01:09           0        2.36       0.066
  YS02001616           JUNCTION      0.00   513.95     0  01:08           0        2.37       0.026
  YS02001619           JUNCTION   1146.62  1146.62     0  01:35        5.26        7.17      -0.010
  YS02001622           JUNCTION      0.00   912.62     0  01:12           0         6.7      -0.001
  YS02001625           JUNCTION      0.00  1165.07     0  01:32           0        7.09       0.139
  YS02001629           JUNCTION      0.00   911.66     0  01:11           0        4.45      -0.002
  YS02001633           JUNCTION    754.43  1399.41     0  01:12        3.22        7.28       0.046
  YS02001641           JUNCTION      0.00  1395.55     0  01:12           0         6.9       0.044
  YS02001644           JUNCTION    658.69  1840.03     0  01:12         2.8        9.68       0.033
  YS02001647           JUNCTION      0.00  1839.03     0  01:12           0        9.52       0.004
  YS02001649           JUNCTION      0.00  2252.37     0  01:12           0        12.1       0.006
  YS02001652           JUNCTION      0.00   614.47     0  01:32           0         2.6      -0.109
  YS02001655           JUNCTION      0.15   614.68     0  01:32     0.00443        2.59      -0.038
  YS02001658           JUNCTION      0.00   695.47     0  01:15           0        2.59      -0.006
  YS02001661           JUNCTION      0.00   613.06     0  01:32           0        2.59       0.031
  YS02001664           JUNCTION    613.09   613.09     0  01:32        2.59        2.59      -0.010
  YS02001745           JUNCTION    364.87   364.87     0  01:31        1.54        1.54       0.087
  YS02001748           JUNCTION      0.04   685.78     0  01:21      0.0013        1.54      -0.341
  YS02001751           JUNCTION      0.01   533.61     0  01:14    0.000317        1.55       0.095
  YS02001754           JUNCTION      0.26   415.54     0  01:21     0.00749        1.55      -0.140
  YS02001757           JUNCTION      0.00  3376.78     0  01:23           0        19.1       0.037
  YS02001759           JUNCTION    507.70  1270.32     0  01:28        2.14        5.38      -0.010
  YS02001762           JUNCTION      0.00   766.83     0  01:23           0        3.25       0.000
  YS02001765           JUNCTION      0.00   763.63     0  01:23           0        3.24       0.016
  YS02001767           JUNCTION      0.54   762.11     0  01:29      0.0154        3.24      -0.002
  YS02001770           JUNCTION    760.51   762.13     0  01:29        3.23        3.27      -0.013
  YS02001774           JUNCTION      0.00   289.95     0  01:13           0        0.07       2.215
  YS02001779           JUNCTION      0.01   288.63     0  01:13    0.000144      0.0231      -2.969
  YS02001783           JUNCTION      0.00  1155.34     0  01:32           0        7.42       0.003
  YS02001784           JUNCTION      1.06  1155.98     0  01:22      0.0305        7.45       0.007
  YS02001786           JUNCTION      0.06  1155.91     0  01:22     0.00162        7.45       0.009
  YS02001788           JUNCTION      0.07  1155.79     0  01:22     0.00204        7.46       0.003
  YS02001790           JUNCTION      0.15  1169.44     0  01:31     0.00446        7.46       0.037
  YS02001791           JUNCTION      0.00  1285.05     0  01:24           0        7.46      -0.056
  YS02001793           JUNCTION      0.00  1245.35     0  01:27           0        7.46       0.003
  YS02001882           JUNCTION      0.00   113.81     0  01:09           0      0.0159       4.003
  YS02001884           JUNCTION      0.00   202.22     0  01:09           0       0.055       4.704
  YS02001887           JUNCTION    518.71   519.57     0  01:29         2.2        2.24       0.184
  YS02001890           JUNCTION      0.00   519.91     0  01:30           0         2.2       0.244
  YS02001895           JUNCTION      0.00   516.85     0  01:30           0        2.19       0.135
  YS02001898           JUNCTION      0.00   516.71     0  01:30           0        2.19      -0.036
  YS02001901           JUNCTION      0.00   516.82     0  01:29           0         2.2       0.153
  YS02001904           JUNCTION      0.00   516.43     0  01:30           0        2.22       0.116
  YS02001907           JUNCTION      0.00  1614.27     0  01:32           0           7       0.255
  YS02001910           JUNCTION      0.00  1099.28     0  01:32           0        4.78       0.147
  YS02001915           JUNCTION    720.94  1098.92     0  01:32        3.08        4.83       0.027
  YS02001918           JUNCTION      0.00   464.30     0  01:11           0        1.78       0.008
  YS02001920           JUNCTION      2.87   440.04     0  01:13      0.0827        1.76       0.026
  YS02001923           JUNCTION      0.04   503.58     0  01:11     0.00109        1.66      -0.072
  YS02001926           JUNCTION      0.05   758.82     0  01:12      0.0015        1.64      -0.029
  YS02001929           JUNCTION    374.48   519.68     0  01:12        1.62        1.62      -0.033
  YS02006553           JUNCTION      0.00   786.26     0  02:14           0        4.27       0.280
  YS02006556           JUNCTION      0.00   785.71     0  02:13           0        4.29       0.183
  YS02006558           JUNCTION    762.44  1164.38     0  01:12        3.24        7.48       0.050
  YS02006561           JUNCTION      0.00  1164.97     0  01:12           0        7.42      -0.005
  YS02163301           JUNCTION      0.00   911.48     0  01:11           0        4.46       0.038
  YS02163601           JUNCTION      0.11  1398.41     0  01:12     0.00317        6.88       0.073
  YS02164001           JUNCTION      0.00  1397.03     0  01:12           0        6.88       0.038
  YSB1154              JUNCTION    314.52   314.52     0  01:31        1.34        1.34       0.101
  YSB1171              JUNCTION      0.00   687.64     0  01:32           0        2.47       0.252
  YSB1174              JUNCTION    242.93   242.93     0  01:31        1.02        1.02       0.110
  YSB6556              JUNCTION      0.00   314.84     0  01:31           0        1.34       0.085
  CC-1                 OUTFALL       0.00  1024.50     0  00:01           0        5.61       0.000
  CC-2                 OUTFALL       0.00  1024.50     0  00:01           0        9.35       0.000
  JK-1                 OUTFALL       0.00  1500.00     0  02:11           0       0.317       0.000
  JK-2                 OUTFALL       0.00  1500.00     0  01:10           0        6.59       0.000
  WSC                  OUTFALL       0.00  1507.43     0  01:21           0        16.8       0.000
  CC-storage           STORAGE       0.00  3380.48     0  01:23           0        21.3      -0.136
  JK-storage           STORAGE       0.00  1244.42     0  01:27           0        7.61      -0.215
  XR-storage           STORAGE     200.00   200.00     0  00:00        5.76        6.36       0.001
  
  
  **********************
  Node Surcharge Summary
  **********************
  
  Surcharging occurs when water rises above the top of the highest conduit.
  ---------------------------------------------------------------------
                                               Max. Height   Min. Depth
                                   Hours       Above Crown    Below Rim
  Node                 Type      Surcharged         Meters       Meters
  ---------------------------------------------------------------------
  HS02004478           JUNCTION        1.38          0.640        0.300
  HS02004479           JUNCTION        1.55          0.917        0.133
  HS02004480           JUNCTION        1.60          0.961        0.139
  HS02004770           JUNCTION        1.48          0.720        0.000
  HS02004777           JUNCTION        1.48          0.780        0.000
  HS02004785           JUNCTION        1.42          0.790        0.000
  HS02004788           JUNCTION        1.41          0.720        0.000
  HS02004792           JUNCTION        1.56          0.900        0.000
  HS02004799           JUNCTION        1.90          1.060        0.000
  HS02004802           JUNCTION        1.61          1.085        0.125
  HS02004807           JUNCTION        1.58          1.220        0.000
  HS02004817           JUNCTION        2.07          1.734        0.006
  HS02004824           JUNCTION        1.40          1.307        0.003
  HS02004830           JUNCTION        1.37          1.306        0.024
  HS02004837           JUNCTION        1.31          1.231        0.109
  HS02004842           JUNCTION        1.47          1.520        0.000
  HS02004848           JUNCTION        1.27          1.370        0.000
  HS02004852           JUNCTION        1.31          1.420        0.000
  HS02004856           JUNCTION        1.29          1.300        0.000
  HS02004862           JUNCTION        1.34          1.300        0.000
  HS02004870           JUNCTION        1.37          1.400        0.000
  HS02004876           JUNCTION        1.47          1.421        0.139
  HS02004881           JUNCTION        1.45          1.173        0.277
  HS02004901           JUNCTION        1.49          0.720        0.000
  WS02004401           JUNCTION        2.27          1.362        0.298
  WS02004402           JUNCTION        2.29          1.232        0.508
  WS02004403           JUNCTION        2.29          1.172        0.858
  WS02004404           JUNCTION        2.34          1.618        1.162
  WS02004405           JUNCTION        2.33          2.100        0.700
  WS02004406           JUNCTION        2.32          2.256        0.194
  WS02004409           JUNCTION        1.92          0.362        1.998
  WS02004410           JUNCTION        1.90          0.418        2.122
  WS02004411           JUNCTION        1.88          0.438        2.092
  WS02004412           JUNCTION        1.84          0.322        1.988
  WS02004413           JUNCTION        2.05          1.174        1.026
  WS02006109           JUNCTION        2.50          1.820        0.000
  WS02006110           JUNCTION        2.38          1.850        0.000
  WS02006111           JUNCTION        2.01          1.243        0.627
  WS02006112           JUNCTION        2.44          1.680        0.000
  WS02006113           JUNCTION        2.03          1.299        0.631
  WS02006115           JUNCTION        2.17          1.333        0.917
  WS02006116           JUNCTION        2.19          1.284        1.006
  WS02006228           JUNCTION        2.50          2.200        0.000
  WS02006229           JUNCTION        1.94          1.070        0.000
  WS02006230           JUNCTION        2.32          1.570        0.000
  WS02006231           JUNCTION        2.33          1.530        0.000
  WS02006232           JUNCTION        2.40          1.480        0.000
  WS02006234           JUNCTION        2.30          1.240        0.000
  WS02006235           JUNCTION        2.29          1.290        0.000
  WS02006238           JUNCTION        2.32          1.430        0.000
  WS02006239           JUNCTION        2.29          1.290        0.000
  WS02006240           JUNCTION        2.29          1.390        0.000
  WS02006242           JUNCTION        2.31          0.820        0.000
  WS02006243           JUNCTION        2.29          0.770        0.000
  WS02006245           JUNCTION        2.29          0.850        0.000
  WS02006247           JUNCTION        2.31          0.760        0.000
  WS02006248           JUNCTION        2.30          0.380        0.000
  WS02006249           JUNCTION        2.30          0.390        0.000
  WS02006251           JUNCTION        2.25          1.167        0.013
  WS02006252           JUNCTION        2.57          1.100        0.000
  WS02006253           JUNCTION        2.26          2.037        0.443
  WS02006256           JUNCTION        7.01          2.050        0.000
  WS02006280           JUNCTION        1.88          0.780        0.000
  WS02006284           JUNCTION        1.65          0.800        0.000
  WS02006287           JUNCTION        1.48          0.717        0.173
  YS02001580           JUNCTION        1.57          0.450        0.000
  YS02001583           JUNCTION        1.58          0.500        0.000
  YS02001586           JUNCTION        1.87          0.510        0.000
  YS02001590           JUNCTION        1.92          0.750        0.000
  YS02001593           JUNCTION        1.92          0.840        0.000
  YS02001596           JUNCTION        1.98          1.020        0.050
  YS02001600           JUNCTION        2.03          1.190        0.000
  YS02001601           JUNCTION        2.20          1.440        0.000
  YS02001602           JUNCTION        2.14          1.270        0.000
  YS02001605           JUNCTION        2.12          1.180        0.000
  YS02001607           JUNCTION        1.85          0.680        0.000
  YS02001610           JUNCTION        1.87          0.680        0.000
  YS02001613           JUNCTION        1.85          0.700        0.000
  YS02001616           JUNCTION        1.82          0.610        0.000
  YS02001619           JUNCTION        1.80          0.610        0.000
  YS02001622           JUNCTION        1.80          0.587        0.033
  YS02001625           JUNCTION        1.93          0.780        0.000
  YS02001629           JUNCTION        1.61          0.470        0.000
  YS02001633           JUNCTION        1.93          0.990        0.070
  YS02001641           JUNCTION        1.88          0.946        0.154
  YS02001644           JUNCTION        1.85          0.920        0.000
  YS02001647           JUNCTION        1.50          0.704        0.196
  YS02001649           JUNCTION        1.70          0.882        0.168
  YS02001652           JUNCTION        1.37          0.664        0.466
  YS02001655           JUNCTION        1.14          0.738        0.462
  YS02001658           JUNCTION        0.70          0.431        0.869
  YS02001748           JUNCTION        0.12          0.378        0.812
  YS02001751           JUNCTION        0.91          0.505        0.695
  YS02001754           JUNCTION        1.27          0.585        0.565
  YS02001757           JUNCTION        1.75          0.914        0.296
  YS02001759           JUNCTION        1.59          0.876        0.334
  YS02001762           JUNCTION        1.54          0.879        0.271
  YS02001765           JUNCTION        1.47          0.858        0.242
  YS02001767           JUNCTION        1.42          0.852        0.178
  YS02001770           JUNCTION        1.40          0.877        0.043
  YS02001774           JUNCTION        1.52          0.971        0.079
  YS02001779           JUNCTION        1.27          0.680        0.000
  YS02001783           JUNCTION        1.38          0.462        1.138
  YS02001784           JUNCTION        1.35          0.329        1.161
  YS02001786           JUNCTION        1.11          0.077        1.353
  YS02001882           JUNCTION        1.26          0.804        0.026
  YS02001884           JUNCTION        1.30          0.736        0.134
  YS02001887           JUNCTION        1.37          0.774        0.176
  YS02001890           JUNCTION        1.39          0.760        0.000
  YS02001895           JUNCTION        1.23          0.573        0.177
  YS02001898           JUNCTION        1.21          0.556        0.184
  YS02001901           JUNCTION        1.35          0.699        0.171
  YS02001904           JUNCTION        1.33          0.657        0.193
  YS02001907           JUNCTION        1.88          0.950        0.000
  YS02001910           JUNCTION        1.42          0.994        0.106
  YS02001915           JUNCTION        1.28          0.950        0.050
  YS02001918           JUNCTION        1.09          0.810        0.000
  YS02001920           JUNCTION        1.11          1.140        0.000
  YS02001923           JUNCTION        0.01          0.820        0.000
  YS02001926           JUNCTION        0.01          0.900        0.000
  YS02001929           JUNCTION        0.01          0.780        0.000
  YS02006553           JUNCTION        1.90          0.972        0.218
  YS02006556           JUNCTION        1.53          0.894        0.456
  YS02006558           JUNCTION        1.51          0.881        0.519
  YS02006561           JUNCTION        1.04          0.161        0.989
  YS02163301           JUNCTION        1.92          0.916        0.114
  YS02163601           JUNCTION        1.94          1.032        0.048
  YS02164001           JUNCTION        1.88          0.946        0.154
  YSB1154              JUNCTION        1.95          1.284        0.116
  YSB1171              JUNCTION        1.95          1.100        0.000
  YSB1174              JUNCTION        1.92          1.140        0.110
  YSB6556              JUNCTION        1.76          1.100        0.000
  
  
  *********************
  Node Flooding Summary
  *********************
  
  Flooding refers to all water that overflows a node, whether it ponds or not.
  --------------------------------------------------------------------------
                                                             Total   Maximum
                                 Maximum   Time of Max       Flood    Ponded
                        Hours       Rate    Occurrence      Volume     Depth
  Node                 Flooded       LPS   days hr:min    10^6 ltr    Meters
  --------------------------------------------------------------------------
  HS02004770              1.04    684.04      0  01:33       1.507     0.000
  HS02004777              0.01     50.73      0  01:08       0.000     0.000
  HS02004785              0.01    293.82      0  01:08       0.001     0.000
  HS02004788              0.01    378.58      0  01:08       0.001     0.000
  HS02004792              1.07   1199.69      0  01:34       2.979     0.000
  HS02004799              0.54     70.69      0  01:32       0.084     0.000
  HS02004807              0.01     16.06      0  01:12       0.000     0.000
  HS02004842              0.01     50.74      0  01:12       0.000     0.000
  HS02004848              0.01     54.63      0  01:11       0.000     0.000
  HS02004852              0.01    119.12      0  01:11       0.000     0.000
  HS02004856              0.01    344.25      0  01:11       0.002     0.000
  HS02004862              0.01    307.66      0  01:11       0.002     0.000
  HS02004870              0.01    361.34      0  01:11       0.001     0.000
  HS02004901              1.30    548.21      0  01:32       1.910     0.000
  WS02006109              1.23    233.14      0  01:33       0.677     0.000
  WS02006110              0.01    324.82      0  01:07       0.000     0.000
  WS02006112              0.01    195.73      0  01:08       0.000     0.000
  WS02006228              0.01     14.54      0  01:09       0.000     0.000
  WS02006229              0.01     39.04      0  01:09       0.000     0.000
  WS02006230              1.65    563.77      0  01:33       2.584     0.000
  WS02006231              0.01    222.72      0  01:07       0.001     0.000
  WS02006232              0.36    181.99      0  01:07       0.001     0.000
  WS02006234              1.85    210.76      0  01:09       0.370     0.000
  WS02006235              0.01     90.10      0  01:08       0.001     0.000
  WS02006238              0.01    298.90      0  01:08       0.001     0.000
  WS02006239              0.01    723.25      0  01:08       0.002     0.000
  WS02006240              0.01    940.75      0  01:09       0.005     0.000
  WS02006242              1.94    625.53      0  01:09       0.883     0.000
  WS02006243              0.01    142.24      0  01:09       0.001     0.000
  WS02006245              0.01    156.15      0  01:09       0.000     0.000
  WS02006247              0.01     44.47      0  01:09       0.000     0.000
  WS02006248              2.12    363.74      0  01:13       2.389     0.000
  WS02006249              2.24   1273.41      0  01:33       8.579     0.000
  WS02006252              1.59    722.52      0  01:33       2.513     0.000
  WS02006256              0.43    445.57      0  01:09       0.472     0.000
  WS02006280              0.01     10.29      0  01:09       0.000     0.000
  WS02006284              0.01    323.22      0  01:09       0.000     0.000
  YS02001580              0.01     89.50      0  01:09       0.000     0.000
  YS02001583              0.01    138.46      0  01:09       0.000     0.000
  YS02001586              1.33    355.66      0  01:35       0.934     0.000
  YS02001590              0.01    103.34      0  01:07       0.000     0.000
  YS02001593              0.01     98.76      0  01:07       0.000     0.000
  YS02001600              0.01      8.38      0  01:07       0.000     0.000
  YS02001601              1.70    931.71      0  01:32       3.237     0.000
  YS02001602              1.42     62.00      0  02:07       0.304     0.000
  YS02001605              0.01     21.10      0  01:10       0.000     0.000
  YS02001607              0.01    125.87      0  01:10       0.000     0.000
  YS02001610              1.34    611.04      0  01:35       1.715     0.000
  YS02001613              0.01     75.93      0  01:10       0.000     0.000
  YS02001616              0.01     34.42      0  01:10       0.000     0.000
  YS02001619              0.01     11.27      0  01:10       0.000     0.000
  YS02001625              1.29   1164.91      0  01:32       3.033     0.000
  YS02001629              0.05    140.24      0  01:10       0.002     0.000
  YS02001644              0.33    216.98      0  01:33       0.137     0.000
  YS02001779              0.09    218.32      0  01:13       0.002     0.000
  YS02001890              0.26     27.18      0  01:12       0.002     0.000
  YS02001907              1.00   1222.09      0  01:31       2.725     0.000
  YS02001918              0.01    133.64      0  01:13       0.002     0.000
  YS02001920              0.01     19.25      0  01:13       0.000     0.000
  YS02001923              0.01     71.08      0  01:13       0.000     0.000
  YS02001926              0.01     37.10      0  01:13       0.000     0.000
  YS02001929              0.01    305.68      0  01:12       0.002     0.000
  YSB1171                 0.81    687.09      0  01:33       1.257     0.000
  YSB6556                 0.01     20.04      0  01:09       0.000     0.000
  
  
  **********************
  Storage Volume Summary
  **********************
  
  --------------------------------------------------------------------------------------------------
                         Average     Avg  Evap Exfil       Maximum     Max    Time of Max    Maximum
                          Volume    Pcnt  Pcnt  Pcnt        Volume    Pcnt     Occurrence    Outflow
  Storage Unit           1000 m3    Full  Loss  Loss       1000 m3    Full    days hr:min        LPS
  --------------------------------------------------------------------------------------------------
  CC-storage               2.288      36     0     0         4.408      69       0  02:11    2549.00
  JK-storage               0.062      21     0     0         0.150      52       0  00:00    2300.00
  XR-storage               0.931      65     0     0         1.111      77       0  08:00     380.00
  
  
  ***********************
  Outfall Loading Summary
  ***********************
  
  -----------------------------------------------------------
                         Flow       Avg       Max       Total
                         Freq      Flow      Flow      Volume
  Outfall Node           Pcnt       LPS       LPS    10^6 ltr
  -----------------------------------------------------------
  CC-1                  42.30    794.46   1024.50       5.605
  CC-2                  53.16   1023.08   1024.50       9.345
  JK-1                   0.97   1411.76   1500.00       0.317
  JK-2                  20.93   1495.90   1500.00       6.589
  WSC                   99.95    752.76   1507.43      16.841
  -----------------------------------------------------------
  System                43.46   5477.96   1507.43      38.697
  
  
  ********************
  Link Flow Summary
  ********************
  
  -----------------------------------------------------------------------------
                                 Maximum  Time of Max   Maximum    Max/    Max/
                                  |Flow|   Occurrence   |Veloc|    Full    Full
  Link                 Type          LPS  days hr:min     m/sec    Flow   Depth
  -----------------------------------------------------------------------------
  1                    CONDUIT   1507.43     0  01:21      3.70    0.52    0.52
  HS02004478WS02006287 CONDUIT   2452.28     0  01:08      3.02    0.69    1.00
  HS02004479HS02004480 CONDUIT    444.46     0  01:11      0.63    0.43    1.00
  HS02004480HS02004478 CONDUIT   2285.12     0  01:09      3.26    9.62    1.00
  HS02004770HS02004777 CONDUIT    820.67     0  01:08      1.17    1.50    1.00
  HS02004777HS02004785 CONDUIT    825.07     0  01:08      1.23    1.02    1.00
  HS02004785HS02004788 CONDUIT    899.87     0  01:08      1.36    6.78    1.00
  HS02004788HS02004792 CONDUIT    939.92     0  01:09      1.46    0.62    1.00
  HS02004792HS02004799 CONDUIT   1740.04     0  01:09      2.49    1.07    1.00
  HS02004799HS02004480 CONDUIT   1911.80     0  01:09      2.73    2.42    1.00
  HS02004802HS02004478 CONDUIT   1078.63     0  01:33      1.54    0.95    1.00
  HS02004807HS02004802 CONDUIT   1078.71     0  01:33      1.54    2.06    1.00
  HS02004817HS02004807 CONDUIT    757.73     0  01:33      1.08    0.45    1.00
  HS02004817HS02004824 CONDUIT    757.09     0  01:33      1.08    0.34    1.00
  HS02004824HS02004830 CONDUIT    719.59     0  01:10      1.04    0.94    1.00
  HS02004830HS02004837 CONDUIT    760.19     0  01:10      1.18    0.76    1.00
  HS02004837HS02004842 CONDUIT    902.88     0  01:10      1.29    0.54    1.00
  HS02004842HS02004848 CONDUIT    900.87     0  01:10      1.46    0.52    1.00
  HS02004848HS02004852 CONDUIT   1058.85     0  01:10      1.68    1.19    1.00
  HS02004852HS02004856 CONDUIT   1010.33     0  01:11      1.51    1.16    1.00
  HS02004856HS02004862 CONDUIT   1104.03     0  01:11      1.73    1.10    1.00
  HS02004862HS02004870 CONDUIT   1233.86     0  01:11      1.94    1.33    1.00
  HS02004870HS02004876 CONDUIT   1165.07     0  01:12      1.70    0.77    1.00
  HS02004876HS02004881 CONDUIT   1341.32     0  01:33      2.16   14.27    1.00
  HS02004881HS02006253 CONDUIT   1434.87     0  01:32      2.99    0.28    1.00
  HS02004901HS02004770 CONDUIT    265.79     0  02:10      0.38    1.00    1.00
  WS02001211WS02001212 CONDUIT    315.34     0  01:18      0.54    0.24    0.72
  WS02001212WS02001213 CONDUIT    355.48     0  01:19      1.04    0.55    0.62
  WS02001213WS02003059 CONDUIT    328.54     0  01:13      0.48    0.54    0.92
  WS02003059WS02003060 CONDUIT    448.23     0  01:13      0.80    0.29    0.83
  WS02003060WS02003069 CONDUIT   1518.36     0  01:20      2.36    0.59    0.61
  WS02003066WSF200     CONDUIT   1280.62     0  01:17      3.73    0.22    0.41
  WS02003067WS02003066 CONDUIT   1280.55     0  01:22      2.03    0.41    0.58
  WS02003069WS02003072 CONDUIT   1509.25     0  01:21      1.90    0.73    0.66
  WS02003072WS02003073 CONDUIT   1506.55     0  01:20      2.05    3.25    0.62
  WS02004138WS02004139 CONDUIT    190.94     0  00:29      2.16    0.04    0.44
  WS02004139WS02001211 CONDUIT    371.67     0  01:16      0.54    0.47    0.63
  WS02004401WS02004402 CONDUIT   1395.30     0  01:09      1.79    1.68    1.00
  WS02004402WS02004403 CONDUIT   1390.19     0  01:09      1.78    2.00    1.00
  WS02004403WS02004404 CONDUIT   1402.02     0  01:09      1.79    1.01    1.00
  WS02004404WS02004405 CONDUIT   1432.73     0  01:09      1.82   14.04    1.00
  WS02004405WS02004406 CONDUIT   1539.09     0  01:09      1.99    3.04    1.00
  WS02004406WS02004407 CONDUIT   1402.06     0  01:09      2.30    0.63    0.94
  WS02004407WS02004409 CONDUIT   1458.82     0  01:10      2.82    0.52    0.94
  WS02004409WS02004410 CONDUIT   1490.18     0  01:10      2.07    1.93    1.00
  WS02004410WS02004411 CONDUIT   1358.66     0  01:11      2.03    1.86    1.00
  WS02004411WS02004412 CONDUIT   1278.62     0  01:31      1.86    1.82    1.00
  WS02004412WS02004413 CONDUIT   1300.79     0  01:11      1.81    0.87    1.00
  WS02004413WS02003067 CONDUIT   1278.61     0  01:31      1.99    0.55    0.76
  WS02006109WS02006110 CONDUIT   1328.14     0  01:09      2.64    2.55    1.00
  WS02006110WS02006113 CONDUIT   1330.41     0  01:09      2.65    1.21    1.00
  WS02006111WS02006112 CONDUIT   1250.98     0  01:09      2.49    0.59    1.00
  WS02006112WS02006115 CONDUIT   1400.57     0  01:09      1.78    0.83    1.00
  WS02006113WS02006111 CONDUIT   1336.95     0  01:09      2.92    1.60    1.00
  WS02006115WS02006116 CONDUIT   1422.63     0  01:09      1.81    1.83    1.00
  WS02006116WS02004401 CONDUIT   1445.68     0  01:09      1.84    1.99    1.00
  WS02006228WS02006109 CONDUIT   1323.74     0  01:09      2.63    5.78    1.00
  WS02006229WS02006228 CONDUIT   1318.36     0  01:09      2.62    4.37    1.00
  WS02006230WS02006229 CONDUIT   1006.12     0  01:33      2.61   22.39    1.00
  WS02006231WS02006230 CONDUIT    762.61     0  01:08      1.98   11.57    1.00
  WS02006232WS02006231 CONDUIT    761.91     0  01:08      1.98    1.60    1.00
  WS02006234WS02006232 CONDUIT    761.75     0  01:08      1.99    1.54    1.00
  WS02006235WS02006234 CONDUIT    766.66     0  01:08      2.08    8.09    1.00
  WS02006238WS02006235 CONDUIT    725.29     0  01:08      2.06    1.62    1.00
  WS02006239WS02006238 CONDUIT    729.95     0  01:08      2.22    2.34    1.00
  WS02006240WS02006239 CONDUIT    618.74     0  01:08      1.68    1.95    1.00
  WS02006242WS02006240 CONDUIT    457.07     0  01:08      1.19    1.82    1.00
  WS02006243WS02006242 CONDUIT    586.43     0  01:08      1.66    1.25    1.00
  WS02006245WS02006243 CONDUIT    607.91     0  01:08      1.66    1.80    1.00
  WS02006247WS02006245 CONDUIT    635.30     0  01:08      1.68    5.04    1.00
  WS02006248WS02006247 CONDUIT    639.61     0  01:08      1.66    1.39    1.00
  WS02006249WS02006248 CONDUIT    648.32     0  01:08      1.68    3.55    1.00
  WS02006251WS02006249 CONDUIT   1341.59     0  01:12      3.49    3.87    1.00
  WS02006252WS02006251 CONDUIT    602.05     0  02:58     25.27    2.21    1.00
  WS02006253WS02006251 CONDUIT   1456.91     0  01:33      3.79    4.37    1.00
  WS02006256WS02006235 CONDUIT    288.93     0  00:00      4.23    3.06    1.00
  WS02006280WS02006229 CONDUIT   2286.62     0  01:33      5.31    0.49    1.00
  WS02006284WS02006280 CONDUIT   2284.94     0  01:33      3.37    0.96    1.00
  WS02006287WS02006284 CONDUIT   2323.15     0  01:09      3.08    1.08    1.00
  WSF200WS02003060     CONDUIT   1550.40     0  01:12      3.40    0.34    0.51
  YS02001580YS02001583 CONDUIT    151.85     0  01:09      0.87    0.59    1.00
  YS02001583YS02001586 CONDUIT    181.74     0  01:08      0.87    0.27    1.00
  YS02001586YS02001590 CONDUIT    318.30     0  02:29      1.33    0.56    1.00
  YS02001590YS02001593 CONDUIT    318.24     0  02:29      1.13    2.00    1.00
  YS02001593YS02001596 CONDUIT    318.02     0  01:28      1.74    0.50    1.00
  YS02001596YS02001600 CONDUIT    318.12     0  01:25      1.26    0.62    1.00
  YS02001600YS02001601 CONDUIT    318.08     0  02:29      1.12    0.55    1.00
  YS02001601YS02001602 CONDUIT    605.86     0  01:09      2.14    2.19    1.00
  YS02001602YS02001605 CONDUIT    605.89     0  01:09      2.14   12.82    1.00
  YS02001605YS02001607 CONDUIT    605.89     0  01:09      2.14    3.32    1.00
  YS02001607YS02001610 CONDUIT    601.51     0  01:09      0.93    0.57    1.00
  YS02001610YS02001613 CONDUIT    572.47     0  01:09      0.83    0.66    1.00
  YS02001613YS02001616 CONDUIT    513.95     0  01:08      0.87    0.44    1.00
  YS02001616YS02001619 CONDUIT    492.93     0  02:51      0.92    0.86    1.00
  YS02001619YS02001622 CONDUIT    912.62     0  01:12      1.88    1.35    1.00
  YS02001622YS02001625 CONDUIT    912.23     0  01:12      1.25    0.49    1.00
  YS02001625YS02001629 CONDUIT    911.66     0  01:11      1.16    0.43    1.00
  YS02001629YS02163301 CONDUIT    911.48     0  01:11      1.16    1.12    1.00
  YS02001633YS02163601 CONDUIT   1398.30     0  01:12      1.78    1.47    1.00
  YS02001641YS02001644 CONDUIT   1394.35     0  01:12      1.78    4.51    1.00
  YS02001644YS02001647 CONDUIT   1839.03     0  01:12      2.36    1.08    1.00
  YS02001647YS02001649 CONDUIT   1828.56     0  01:12      2.36    0.97    1.00
  YS02001649YS02001757 CONDUIT   2249.50     0  01:12      2.86    1.37    1.00
  YS02001652YS02001649 CONDUIT    614.35     0  01:32      1.49    0.30    1.00
  YS02001655YS02001652 CONDUIT    614.47     0  01:32      1.94    0.30    1.00
  YS02001658YS02001655 CONDUIT    614.53     0  01:32      2.08    0.26    1.00
  YS02001661YS02001658 CONDUIT    695.47     0  01:15      2.35    0.27    0.92
  YS02001664YS02001661 CONDUIT    613.06     0  01:32      2.29    0.19    0.61
  YS02001745YS02001748 CONDUIT    685.74     0  01:21      2.23    0.26    0.82
  YS02001748YS02001751 CONDUIT    533.60     0  01:14      1.82    0.27    1.00
  YS02001751YS02001754 CONDUIT    415.28     0  01:21      1.78    0.20    1.00
  YS02001754YS02001757 CONDUIT    417.38     0  01:21      1.18    0.17    1.00
  YS02001757CaochengTiaoxuchi CONDUIT   3380.48     0  01:23      4.72    1.46    1.00
  YS02001759YS02001757 CONDUIT   1270.96     0  01:23      1.62    0.90    1.00
  YS02001762YS02001759 CONDUIT    769.90     0  01:23      0.98    0.89    1.00
  YS02001765YS02001762 CONDUIT    766.83     0  01:23      0.98    0.72    1.00
  YS02001767YS02001765 CONDUIT    763.63     0  01:23      0.98    0.96    1.00
  YS02001770YS02001767 CONDUIT    761.57     0  01:29      1.00    3.02    1.00
  YS02001774YS02001770 CONDUIT    289.95     0  01:13      0.81    0.19    1.00
  YS02001779YS02001774 CONDUIT    288.63     0  01:13      0.37    0.15    1.00
  YS02001783YS02001784 CONDUIT   1154.92     0  01:22      2.30    1.59    1.00
  YS02001784YS02001785 CONDUIT   1155.85     0  01:22      2.30    2.69    1.00
  YS02001786YS02001788 CONDUIT   1155.71     0  01:22      2.47    2.23    0.89
  YS02001788YS02001790 CONDUIT   1169.28     0  01:31      2.71    0.86    0.84
  YS02001790YS02001791 CONDUIT   1285.05     0  01:24      3.42    1.40    0.70
  YS02001791YS02001793 CONDUIT   1245.35     0  01:27      6.80    0.53    0.41
  YS02001793JiankangQianchi CONDUIT   1244.42     0  01:27      2.50    0.10    0.61
  YS02001882YS02001884 CONDUIT    113.81     0  01:09      0.47    0.13    1.00
  YS02001884YS02001887 CONDUIT    202.22     0  01:09      0.42    0.27    1.00
  YS02001887YS02001890 CONDUIT    519.91     0  01:30      0.66    0.89    1.00
  YS02001890YS02001895 CONDUIT    516.85     0  01:30      0.66    0.24    1.00
  YS02001895YS02001898 CONDUIT    516.71     0  01:30      0.76    0.90    1.00
  YS02001898YS02001901 CONDUIT    516.82     0  01:29      0.66    0.33    1.00
  YS02001901YS02001904 CONDUIT    516.43     0  01:30      0.70    0.80    1.00
  YS02001904YS02001907 CONDUIT    517.03     0  01:11      0.66    0.18    1.00
  YS02001907YS02006553 CONDUIT    786.26     0  02:14      0.87    0.92    1.00
  YS02001910YS02001907 CONDUIT   1098.78     0  01:32      1.40    0.62    1.00
  YS02001915YS02001910 CONDUIT   1099.28     0  01:32      1.40    0.55    1.00
  YS02001918YS02001915 CONDUIT    464.30     0  01:11      0.65    0.26    1.00
  YS02001920YS02001918 CONDUIT    440.89     0  01:13      0.77    0.43    1.00
  YS02001923YS02001920 CONDUIT    437.17     0  01:13      0.88    0.20    1.00
  YS02001926YS02001923 CONDUIT    425.82     0  01:12      0.97    0.61    1.00
  YS02001929YS02001926 CONDUIT    395.52     0  01:13      1.14    0.19    1.00
  YS02006553YS02006556 CONDUIT    785.71     0  02:13      1.00    0.67    1.00
  YS02006556YS02006558 CONDUIT    786.91     0  02:13      1.00    0.62    1.00
  YS02006558YS02006561 CONDUIT   1164.97     0  01:12      4.12    2.57    1.00
  YS02006561YS02001783 CONDUIT   1155.34     0  01:32      2.30    0.60    1.00
  YS02163301YS02001633 CONDUIT    911.39     0  01:11      1.16    0.86    1.00
  YS02163601YS02164001 CONDUIT   1397.03     0  01:12      1.78    1.24    1.00
  YS02164001YS02001641 CONDUIT   1395.55     0  01:12      1.78    1.91    1.00
  YSB1154YSB6556       CONDUIT    314.84     0  01:31      0.82    0.57    1.00
  YSB1171HS02004479    CONDUIT    443.25     0  01:11      0.88    0.30    1.00
  YSB1174YSB1171       CONDUIT    243.29     0  01:30      0.63    0.37    1.00
  YSB6556YSB1171       CONDUIT    314.82     0  01:30      0.82    0.32    1.00
  CC-R1                PUMP      1024.50     0  00:01              1.50
  CC-R2                PUMP      1024.50     0  00:01              1.50
  CC-S1                PUMP       300.00     0  01:04              1.50
  CC-S2                PUMP       300.00     0  00:01              1.50
  JK-R1                PUMP      1500.00     0  02:11              1.50
  JK-R2                PUMP      1500.00     0  01:10              1.50
  JK-S                 PUMP       450.00     0  00:11              1.50
  XR-1                 PUMP        95.00     0  00:00              1.00
  XR-2                 PUMP        95.00     0  00:00              1.00
  XR-3                 PUMP        95.00     0  00:00              1.00
  XR-4                 PUMP        95.00     0  00:00              1.00
  
  
  ***************************
  Flow Classification Summary
  ***************************
  
  -------------------------------------------------------------------------------------
                      Adjusted    ---------- Fraction of Time in Flow Class ---------- 
                       /Actual         Up    Down  Sub   Sup   Up    Down  Norm  Inlet 
  Conduit               Length    Dry  Dry   Dry   Crit  Crit  Crit  Crit  Ltd   Ctrl  
  -------------------------------------------------------------------------------------
  1                       1.00   0.00  0.00  0.00  0.00  1.00  0.00  0.00  0.45  0.00
  HS02004478WS02006287    1.00   0.11  0.00  0.00  0.71  0.18  0.00  0.00  0.56  0.00
  HS02004479HS02004480    1.00   0.08  0.00  0.00  0.92  0.00  0.00  0.00  0.09  0.00
  HS02004480HS02004478    1.00   0.11  0.00  0.00  0.66  0.00  0.00  0.23  0.00  0.00
  HS02004770HS02004777    1.00   0.00  0.11  0.00  0.89  0.00  0.00  0.00  0.00  0.00
  HS02004777HS02004785    1.00   0.00  0.00  0.00  1.00  0.00  0.00  0.00  0.09  0.00
  HS02004785HS02004788    1.00   0.00  0.00  0.00  1.00  0.00  0.00  0.00  0.00  0.00
  HS02004788HS02004792    1.00   0.00  0.00  0.00  0.96  0.04  0.00  0.00  0.78  0.00
  HS02004792HS02004799    1.00   0.00  0.00  0.00  0.95  0.05  0.00  0.00  0.74  0.00
  HS02004799HS02004480    1.00   0.01  0.07  0.00  0.88  0.00  0.04  0.00  0.00  0.00
  HS02004802HS02004478    1.00   0.11  0.00  0.00  0.89  0.00  0.00  0.00  0.00  0.00
  HS02004807HS02004802    1.00   0.11  0.00  0.00  0.89  0.00  0.00  0.00  0.00  0.00
  HS02004817HS02004807    1.00   0.00  0.11  0.00  0.89  0.00  0.00  0.00  0.01  0.00
  HS02004817HS02004824    1.00   0.00  0.00  0.00  1.00  0.00  0.00  0.00  0.73  0.00
  HS02004824HS02004830    1.00   0.00  0.00  0.00  1.00  0.00  0.00  0.00  0.00  0.00
  HS02004830HS02004837    1.00   0.00  0.00  0.00  0.99  0.01  0.00  0.00  0.74  0.00
  HS02004837HS02004842    1.00   0.00  0.00  0.00  0.98  0.02  0.00  0.00  0.11  0.00
  HS02004842HS02004848    1.00   0.00  0.11  0.00  0.89  0.00  0.00  0.00  0.51  0.00
  HS02004848HS02004852    1.00   0.11  0.00  0.00  0.89  0.00  0.00  0.00  0.62  0.00
  HS02004852HS02004856    1.00   0.11  0.00  0.00  0.89  0.00  0.00  0.00  0.60  0.00
  HS02004856HS02004862    1.00   0.00  0.11  0.00  0.89  0.00  0.00  0.00  0.63  0.00
  HS02004862HS02004870    1.00   0.00  0.00  0.00  1.00  0.00  0.00  0.00  0.01  0.00
  HS02004870HS02004876    1.00   0.02  0.00  0.00  0.97  0.01  0.00  0.00  0.73  0.00
  HS02004876HS02004881    1.00   0.06  0.00  0.00  0.83  0.11  0.00  0.00  0.00  0.00
  HS02004881HS02006253    1.00   0.03  0.05  0.00  0.45  0.02  0.00  0.44  0.06  0.00
  HS02004901HS02004770    1.00   0.11  0.00  0.00  0.89  0.00  0.00  0.00  0.00  0.00
  WS02001211WS02001212    1.00   0.00  0.07  0.00  0.93  0.00  0.00  0.00  0.00  0.00
  WS02001212WS02001213    1.00   0.07  0.00  0.00  0.53  0.00  0.40  0.00  0.00  0.00
  WS02001213WS02003059    1.00   0.00  0.03  0.00  0.97  0.00  0.00  0.00  0.00  0.00
  WS02003059WS02003060    1.00   0.00  0.00  0.00  0.99  0.01  0.00  0.00  0.03  0.00
  WS02003060WS02003069    1.00   0.00  0.00  0.00  0.97  0.03  0.00  0.00  0.44  0.00
  WS02003066WSF200        1.00   0.11  0.00  0.00  0.00  0.89  0.00  0.00  0.57  0.00
  WS02003067WS02003066    1.00   0.10  0.01  0.00  0.89  0.00  0.00  0.00  0.00  0.00
  WS02003069WS02003072    1.00   0.00  0.00  0.00  0.98  0.02  0.00  0.00  0.62  0.00
  WS02003072WS02003073    1.00   0.00  0.00  0.00  0.00  0.00  0.00  1.00  0.00  0.00
  WS02004138WS02004139    1.00   0.00  0.00  0.00  0.93  0.01  0.00  0.06  0.98  0.00
  WS02004139WS02001211    1.00   0.00  0.01  0.00  0.98  0.00  0.01  0.00  0.00  0.00
  WS02004401WS02004402    1.00   0.07  0.00  0.00  0.93  0.00  0.00  0.00  0.00  0.00
  WS02004402WS02004403    1.00   0.07  0.00  0.00  0.93  0.00  0.00  0.00  0.00  0.00
  WS02004403WS02004404    1.00   0.00  0.07  0.00  0.93  0.00  0.00  0.00  0.00  0.00
  WS02004404WS02004405    1.00   0.00  0.00  0.00  1.00  0.00  0.00  0.00  0.00  0.00
  WS02004405WS02004406    1.00   0.00  0.00  0.00  1.00  0.00  0.00  0.00  0.00  0.00
  WS02004406WS02004407    1.00   0.00  0.08  0.00  0.92  0.00  0.00  0.00  0.00  0.00
  WS02004407WS02004409    1.00   0.08  0.00  0.00  0.91  0.00  0.00  0.00  0.70  0.00
  WS02004409WS02004410    1.00   0.08  0.00  0.00  0.92  0.00  0.00  0.00  0.03  0.00
  WS02004410WS02004411    1.00   0.08  0.00  0.00  0.92  0.00  0.00  0.00  0.01  0.00
  WS02004411WS02004412    1.00   0.08  0.00  0.00  0.92  0.00  0.00  0.00  0.00  0.00
  WS02004412WS02004413    1.00   0.08  0.00  0.00  0.91  0.00  0.00  0.00  0.01  0.00
  WS02004413WS02003067    1.00   0.09  0.02  0.00  0.00  0.00  0.90  0.00  0.00  0.00
  WS02006109WS02006110    1.00   0.00  0.04  0.00  0.94  0.00  0.02  0.00  0.00  0.00
  WS02006110WS02006113    1.00   0.04  0.02  0.00  0.94  0.00  0.00  0.00  0.00  0.00
  WS02006111WS02006112    1.00   0.06  0.00  0.00  0.93  0.00  0.00  0.00  0.68  0.00
  WS02006112WS02006115    1.00   0.06  0.00  0.00  0.93  0.00  0.00  0.00  0.00  0.00
  WS02006113WS02006111    1.00   0.06  0.00  0.00  0.40  0.54  0.00  0.00  0.05  0.00
  WS02006115WS02006116    1.00   0.07  0.00  0.00  0.93  0.00  0.00  0.01  0.00  0.00
  WS02006116WS02004401    1.00   0.07  0.00  0.00  0.93  0.00  0.00  0.00  0.00  0.00
  WS02006228WS02006109    1.00   0.00  0.00  0.00  1.00  0.00  0.00  0.00  0.00  0.00
  WS02006229WS02006228    1.00   0.00  0.00  0.00  0.96  0.00  0.00  0.04  0.00  0.00
  WS02006230WS02006229    1.00   0.00  0.00  0.00  0.94  0.00  0.00  0.06  0.00  0.00
  WS02006231WS02006230    1.00   0.00  0.00  0.00  0.53  0.00  0.46  0.00  0.00  0.00
  WS02006232WS02006231    1.00   0.00  0.00  0.00  0.98  0.00  0.02  0.00  0.00  0.00
  WS02006234WS02006232    1.00   0.00  0.00  0.00  0.99  0.01  0.00  0.00  0.02  0.00
  WS02006235WS02006234    1.00   0.00  0.00  0.00  0.87  0.00  0.12  0.00  0.00  0.00
  WS02006238WS02006235    1.00   0.00  0.00  0.00  1.00  0.00  0.00  0.00  0.00  0.00
  WS02006239WS02006238    1.00   0.00  0.00  0.00  1.00  0.00  0.00  0.00  0.14  0.00
  WS02006240WS02006239    1.00   0.00  0.00  0.00  0.75  0.00  0.00  0.25  0.01  0.00
  WS02006242WS02006240    1.00   0.01  0.00  0.00  0.97  0.00  0.03  0.00  0.00  0.00
  WS02006243WS02006242    1.00   0.00  0.00  0.00  0.96  0.00  0.00  0.04  0.62  0.00
  WS02006245WS02006243    1.00   0.00  0.00  0.00  0.90  0.00  0.00  0.10  0.00  0.00
  WS02006247WS02006245    1.00   0.00  0.00  0.00  0.96  0.00  0.00  0.04  0.00  0.00
  WS02006248WS02006247    1.00   0.00  0.00  0.00  0.99  0.00  0.00  0.01  0.52  0.00
  WS02006249WS02006248    1.00   0.00  0.00  0.00  0.66  0.00  0.33  0.00  0.00  0.00
  WS02006251WS02006249    1.00   0.00  0.00  0.00  0.99  0.01  0.00  0.00  0.55  0.00
  WS02006252WS02006251    1.00   0.25  0.18  0.00  0.42  0.00  0.15  0.00  0.00  0.00
  WS02006253WS02006251    1.00   0.00  0.00  0.00  0.98  0.00  0.02  0.00  0.01  0.00
  WS02006256WS02006235    1.00   0.00  0.00  0.00  0.99  0.01  0.00  0.00  0.00  0.00
  WS02006280WS02006229    1.00   0.12  0.00  0.00  0.36  0.04  0.00  0.49  0.01  0.00
  WS02006284WS02006280    1.00   0.11  0.00  0.00  0.34  0.01  0.00  0.54  0.00  0.00
  WS02006287WS02006284    1.00   0.10  0.01  0.00  0.60  0.27  0.00  0.02  0.62  0.00
  WSF200WS02003060        1.00   0.00  0.11  0.00  0.40  0.49  0.00  0.00  0.54  0.00
  YS02001580YS02001583    1.00   0.14  0.35  0.00  0.52  0.00  0.00  0.00  0.62  0.00
  YS02001583YS02001586    1.00   0.26  0.16  0.00  0.58  0.00  0.00  0.00  0.62  0.00
  YS02001586YS02001590    1.00   0.11  0.00  0.00  0.67  0.02  0.00  0.20  0.26  0.00
  YS02001590YS02001593    1.00   0.11  0.00  0.00  0.37  0.00  0.52  0.00  0.00  0.00
  YS02001593YS02001596    1.00   0.11  0.00  0.00  0.38  0.01  0.00  0.50  0.01  0.00
  YS02001596YS02001600    1.00   0.11  0.00  0.00  0.42  0.02  0.00  0.45  0.02  0.00
  YS02001600YS02001601    1.00   0.11  0.00  0.00  0.89  0.00  0.00  0.00  0.54  0.00
  YS02001601YS02001602    1.00   0.11  0.00  0.00  0.89  0.00  0.00  0.00  0.00  0.00
  YS02001602YS02001605    1.00   0.11  0.00  0.00  0.89  0.00  0.00  0.00  0.00  0.00
  YS02001605YS02001607    1.00   0.11  0.00  0.00  0.89  0.00  0.00  0.00  0.00  0.00
  YS02001607YS02001610    1.00   0.11  0.00  0.00  0.89  0.00  0.00  0.00  0.00  0.00
  YS02001610YS02001613    1.00   0.11  0.00  0.00  0.89  0.00  0.00  0.00  0.00  0.00
  YS02001613YS02001616    1.00   0.11  0.00  0.00  0.89  0.00  0.00  0.00  0.00  0.00
  YS02001616YS02001619    1.00   0.11  0.00  0.00  0.89  0.00  0.00  0.00  0.00  0.00
  YS02001619YS02001622    1.00   0.11  0.00  0.00  0.88  0.01  0.00  0.00  0.26  0.00
  YS02001622YS02001625    1.00   0.11  0.00  0.00  0.89  0.00  0.00  0.00  0.00  0.00
  YS02001625YS02001629    1.00   0.11  0.01  0.00  0.38  0.00  0.50  0.00  0.00  0.00
  YS02001629YS02163301    1.00   0.11  0.00  0.00  0.89  0.00  0.00  0.00  0.00  0.00
  YS02001633YS02163601    1.00   0.00  0.03  0.00  0.97  0.00  0.00  0.00  0.12  0.00
  YS02001641YS02001644    1.00   0.00  0.02  0.00  0.98  0.00  0.00  0.00  0.00  0.00
  YS02001644YS02001647    1.00   0.00  0.11  0.00  0.89  0.00  0.00  0.00  0.00  0.00
  YS02001647YS02001649    1.00   0.00  0.11  0.00  0.56  0.33  0.00  0.00  0.54  0.00
  YS02001649YS02001757    1.00   0.00  0.00  0.00  0.66  0.34  0.00  0.00  0.43  0.00
  YS02001652YS02001649    1.00   0.00  0.00  0.00  0.99  0.01  0.00  0.00  0.67  0.00
  YS02001655YS02001652    1.00   0.00  0.00  0.00  0.41  0.02  0.00  0.58  0.04  0.00
  YS02001658YS02001655    1.00   0.00  0.11  0.00  0.67  0.21  0.00  0.00  0.63  0.00
  YS02001661YS02001658    1.00   0.11  0.00  0.00  0.49  0.40  0.00  0.00  0.68  0.00
  YS02001664YS02001661    1.00   0.11  0.00  0.00  0.70  0.19  0.00  0.00  0.87  0.00
  YS02001745YS02001748    1.00   0.00  0.00  0.00  0.26  0.03  0.00  0.71  0.06  0.00
  YS02001748YS02001751    1.00   0.00  0.00  0.00  0.83  0.17  0.00  0.00  0.75  0.00
  YS02001751YS02001754    1.00   0.00  0.00  0.00  0.36  0.00  0.00  0.64  0.01  0.00
  YS02001754YS02001757    1.00   0.00  0.00  0.00  1.00  0.00  0.00  0.00  0.74  0.00
  YS02001757CaochengTiaoxuchi    1.00   0.00  0.00  0.00  0.95  0.05  0.00  0.00  0.74  0.00
  YS02001759YS02001757    1.00   0.00  0.00  0.00  1.00  0.00  0.00  0.00  0.58  0.00
  YS02001762YS02001759    1.00   0.00  0.00  0.00  1.00  0.00  0.00  0.00  0.02  0.00
  YS02001765YS02001762    1.00   0.00  0.00  0.00  1.00  0.00  0.00  0.00  0.68  0.00
  YS02001767YS02001765    1.00   0.00  0.00  0.00  1.00  0.00  0.00  0.00  0.00  0.00
  YS02001770YS02001767    1.00   0.00  0.00  0.00  1.00  0.00  0.00  0.00  0.00  0.00
  YS02001774YS02001770    1.00   0.00  0.11  0.00  0.80  0.00  0.08  0.00  0.00  0.00
  YS02001779YS02001774    1.00   0.00  0.00  0.00  1.00  0.00  0.00  0.00  0.72  0.00
  YS02001783YS02001784    1.00   0.00  0.12  0.00  0.88  0.00  0.00  0.00  0.53  0.00
  YS02001784YS02001785    1.00   0.00  0.00  0.00  1.00  0.00  0.00  0.00  0.12  0.00
  YS02001786YS02001788    1.00   0.00  0.00  0.00  0.68  0.32  0.00  0.00  0.00  0.00
  YS02001788YS02001790    1.00   0.00  0.00  0.00  0.22  0.78  0.00  0.00  0.73  0.00
  YS02001790YS02001791    1.00   0.00  0.00  0.00  0.06  0.94  0.00  0.00  0.14  0.00
  YS02001791YS02001793    1.00   0.00  0.00  0.00  0.00  1.00  0.00  0.00  0.02  0.00
  YS02001793JiankangQianchi    1.00   0.00  0.00  0.00  0.84  0.15  0.00  0.00  1.00  0.00
  YS02001882YS02001884    1.00   0.11  0.00  0.00  0.89  0.00  0.00  0.00  0.00  0.00
  YS02001884YS02001887    1.00   0.09  0.02  0.00  0.89  0.00  0.00  0.00  0.00  0.00
  YS02001887YS02001890    1.00   0.00  0.00  0.00  0.93  0.00  0.07  0.00  0.00  0.00
  YS02001890YS02001895    1.00   0.01  0.11  0.00  0.89  0.00  0.00  0.00  0.00  0.00
  YS02001895YS02001898    1.00   0.11  0.00  0.00  0.88  0.00  0.00  0.00  0.00  0.00
  YS02001898YS02001901    1.00   0.11  0.00  0.00  0.89  0.00  0.00  0.00  0.00  0.00
  YS02001901YS02001904    1.00   0.11  0.00  0.00  0.89  0.00  0.00  0.00  0.00  0.00
  YS02001904YS02001907    1.00   0.00  0.11  0.00  0.89  0.00  0.00  0.00  0.00  0.00
  YS02001907YS02006553    1.00   0.00  0.06  0.00  0.93  0.00  0.00  0.00  0.00  0.00
  YS02001910YS02001907    1.00   0.00  0.00  0.00  0.93  0.00  0.00  0.07  0.10  0.00
  YS02001915YS02001910    1.00   0.00  0.00  0.00  0.98  0.02  0.00  0.00  0.10  0.00
  YS02001918YS02001915    1.00   0.00  0.02  0.00  0.95  0.03  0.00  0.00  0.63  0.00
  YS02001920YS02001918    1.00   0.00  0.02  0.00  0.98  0.00  0.00  0.00  0.00  0.00
  YS02001923YS02001920    1.00   0.00  0.00  0.00  1.00  0.00  0.00  0.00  0.82  0.00
  YS02001926YS02001923    1.00   0.00  0.09  0.00  0.21  0.00  0.70  0.00  0.00  0.00
  YS02001929YS02001926    1.00   0.00  0.11  0.00  0.89  0.00  0.00  0.00  0.73  0.00
  YS02006553YS02006556    1.00   0.05  0.00  0.00  0.95  0.00  0.00  0.00  0.03  0.00
  YS02006556YS02006558    1.00   0.00  0.01  0.00  0.99  0.00  0.00  0.00  0.00  0.00
  YS02006558YS02006561    1.00   0.12  0.00  0.00  0.19  0.70  0.00  0.00  0.13  0.00
  YS02006561YS02001783    1.00   0.12  0.00  0.00  0.26  0.63  0.00  0.00  0.61  0.00
  YS02163301YS02001633    1.00   0.00  0.11  0.00  0.89  0.00  0.00  0.00  0.00  0.00
  YS02163601YS02164001    1.00   0.00  0.09  0.00  0.91  0.00  0.00  0.00  0.00  0.00
  YS02164001YS02001641    1.00   0.03  0.07  0.00  0.91  0.00  0.00  0.00  0.05  0.00
  YSB1154YSB6556          1.00   0.11  0.00  0.00  0.89  0.00  0.00  0.00  0.00  0.00
  YSB1171HS02004479       1.00   0.08  0.00  0.00  0.92  0.00  0.00  0.01  0.08  0.00
  YSB1174YSB1171          1.00   0.08  0.02  0.00  0.90  0.00  0.00  0.00  0.00  0.00
  YSB6556YSB1171          1.00   0.08  0.03  0.00  0.89  0.00  0.00  0.00  0.00  0.00
  
  
  *************************
  Conduit Surcharge Summary
  *************************
  
  ----------------------------------------------------------------------------
                                                           Hours        Hours 
                         --------- Hours Full --------   Above Full   Capacity
  Conduit                Both Ends  Upstream  Dnstream   Normal Flow   Limited
  ----------------------------------------------------------------------------
  HS02004478WS02006287        1.38      1.38      1.58      0.01         0.01
  HS02004479HS02004480        1.61      1.61      1.65      0.01         0.01
  HS02004480HS02004478        1.49      1.60      1.49      2.25         1.49
  HS02004770HS02004777        1.48      1.48      1.48      0.27         0.21
  HS02004777HS02004785        1.42      1.42      1.48      0.01         0.01
  HS02004785HS02004788        1.41      1.42      1.41      2.11         1.35
  HS02004788HS02004792        1.41      1.41      1.56      0.01         0.01
  HS02004792HS02004799        1.56      1.56      1.90      0.01         0.02
  HS02004799HS02004480        1.60      1.60      1.90      1.95         0.01
  HS02004802HS02004478        1.51      1.51      1.62      0.01         0.01
  HS02004807HS02004802        1.58      1.58      1.61      0.78         0.79
  HS02004817HS02004807        1.58      1.58      2.07      0.01         0.01
  HS02004817HS02004824        1.40      1.40      2.07      0.01         0.01
  HS02004824HS02004830        1.37      1.37      1.40      0.01         0.01
  HS02004830HS02004837        1.31      1.31      1.37      0.01         0.01
  HS02004837HS02004842        1.31      1.31      1.47      0.01         0.01
  HS02004842HS02004848        1.27      1.27      1.47      0.01         0.01
  HS02004848HS02004852        1.27      1.27      1.31      0.02         0.01
  HS02004852HS02004856        1.31      1.31      1.34      0.02         0.01
  HS02004856HS02004862        1.29      1.29      1.34      0.01         0.01
  HS02004862HS02004870        1.34      1.34      1.37      0.55         0.51
  HS02004870HS02004876        1.37      1.37      1.47      0.01         0.01
  HS02004876HS02004881        1.45      1.47      1.45      2.16         1.45
  HS02004881HS02006253        1.45      1.45      2.26      0.01         0.01
  HS02004901HS02004770        1.48      1.48      1.49      0.61         0.01
  WS02003072WS02003073        0.01      0.01      0.01      2.77         0.01
  WS02004401WS02004402        2.27      2.27      2.29      2.13         2.09
  WS02004402WS02004403        2.29      2.29      2.29      2.27         2.24
  WS02004403WS02004404        2.29      2.29      2.34      0.01         0.04
  WS02004404WS02004405        2.33      2.34      2.33      3.29         2.33
  WS02004405WS02004406        2.32      2.33      2.32      2.41         2.32
  WS02004406WS02004407        0.01      0.01      2.32      0.01         0.01
  WS02004407WS02004409        0.01      0.01      1.92      0.01         0.01
  WS02004409WS02004410        1.90      1.92      1.90      2.17         1.90
  WS02004410WS02004411        1.88      1.90      1.88      2.22         1.88
  WS02004411WS02004412        1.84      1.88      1.84      2.25         1.84
  WS02004412WS02004413        1.84      1.84      2.05      0.01         0.01
  WS02004413WS02003067        0.01      0.01      2.05      0.01         0.01
  WS02006109WS02006110        2.38      2.38      2.52      2.39         0.01
  WS02006110WS02006113        2.03      2.03      2.51      0.68         0.01
  WS02006111WS02006112        2.01      2.01      2.65      0.01         0.01
  WS02006112WS02006115        2.17      2.17      2.44      0.01         0.01
  WS02006113WS02006111        2.02      2.03      2.02      2.13         2.02
  WS02006115WS02006116        2.19      2.19      2.19      2.19         2.15
  WS02006116WS02004401        2.26      2.26      2.27      2.25         2.21
  WS02006228WS02006109        2.50      2.52      2.50      2.70         2.50
  WS02006229WS02006228        2.50      2.50      2.50      2.60         2.50
  WS02006230WS02006229        2.54      2.56      2.54      3.66         0.49
  WS02006231WS02006230        2.32      2.32      2.34      3.07         2.03
  WS02006232WS02006231        2.33      2.33      2.40      0.03         0.35
  WS02006234WS02006232        2.32      2.32      2.40      0.03         0.07
  WS02006235WS02006234        2.28      2.29      2.29      2.79         1.98
  WS02006238WS02006235        2.30      2.31      2.34      0.01         0.76
  WS02006239WS02006238        2.31      2.33      2.32      2.01         0.13
  WS02006240WS02006239        2.28      2.30      2.29      1.99         0.11
  WS02006242WS02006240        2.29      2.29      2.32      2.16         1.93
  WS02006243WS02006242        2.29      2.29      2.31      0.01         0.04
  WS02006245WS02006243        2.29      2.29      2.29      0.07         0.10
  WS02006247WS02006245        2.29      2.31      2.29      2.45         0.24
  WS02006248WS02006247        2.30      2.30      2.31      0.02         0.06
  WS02006249WS02006248        2.30      2.30      2.30      0.42         0.01
  WS02006251WS02006249        2.30      2.31      2.30      2.29         2.24
  WS02006252WS02006251        2.31      2.59      2.53      1.49         0.01
  WS02006253WS02006251        2.30      2.31      2.31      1.94         0.01
  WS02006256WS02006235        2.73      2.90      6.93      0.31         0.02
  WS02006280WS02006229        1.89      1.89      1.94      0.01         0.01
  WS02006284WS02006280        1.64      1.64      1.88      0.01         0.01
  WS02006287WS02006284        1.48      1.48      1.68      0.88         0.89
  YS02001580YS02001583        1.57      1.57      1.71      0.01         0.01
  YS02001583YS02001586        1.58      1.58      1.87      0.01         0.01
  YS02001586YS02001590        1.88      1.88      1.92      0.01         0.01
  YS02001590YS02001593        1.92      1.92      1.93      1.95         0.01
  YS02001593YS02001596        1.93      1.93      1.98      0.01         0.01
  YS02001596YS02001600        2.00      2.00      2.03      0.01         0.01
  YS02001600YS02001601        2.06      2.06      2.20      0.01         0.01
  YS02001601YS02001602        2.14      2.14      2.23      2.05         0.01
  YS02001602YS02001605        2.12      2.12      2.14      2.74         0.01
  YS02001605YS02001607        2.09      2.12      2.09      2.17         2.09
  YS02001607YS02001610        1.85      1.85      1.87      0.01         0.01
  YS02001610YS02001613        1.85      1.85      1.87      0.01         0.01
  YS02001613YS02001616        1.82      1.82      1.85      0.01         0.01
  YS02001616YS02001619        1.80      1.80      1.82      0.01         0.02
  YS02001619YS02001622        1.79      1.80      1.80      1.95         1.73
  YS02001622YS02001625        1.80      1.80      1.93      0.01         0.01
  YS02001625YS02001629        1.61      1.61      1.93      0.01         0.01
  YS02001629YS02163301        1.91      1.91      1.92      0.54         0.49
  YS02001633YS02163601        1.93      1.93      1.94      0.86         0.84
  YS02001641YS02001644        1.85      1.88      1.85      2.24         1.79
  YS02001644YS02001647        1.50      1.50      1.85      0.04         0.01
  YS02001647YS02001649        1.50      1.50      1.70      0.01         0.01
  YS02001649YS02001757        1.69      1.70      1.75      0.28         0.29
  YS02001652YS02001649        1.40      1.40      1.70      0.01         0.01
  YS02001655YS02001652        1.13      1.13      1.37      0.01         0.01
  YS02001658YS02001655        0.70      0.70      1.13      0.01         0.01
  YS02001661YS02001658        0.01      0.01      0.70      0.01         0.01
  YS02001745YS02001748        0.01      0.01      0.12      0.01         0.01
  YS02001748YS02001751        0.47      0.47      0.91      0.01         0.01
  YS02001751YS02001754        0.91      0.91      1.27      0.01         0.01
  YS02001754YS02001757        1.31      1.31      1.75      0.01         0.01
  YS02001757CaochengTiaoxuchi        1.54      1.75      1.79      1.04         0.80
  YS02001759YS02001757        1.59      1.59      1.75      0.01         0.01
  YS02001762YS02001759        1.54      1.54      1.59      0.01         0.06
  YS02001765YS02001762        1.47      1.47      1.54      0.01         0.01
  YS02001767YS02001765        1.42      1.42      1.47      0.01         0.11
  YS02001770YS02001767        1.42      1.42      1.42      1.42         1.22
  YS02001774YS02001770        1.40      1.40      1.52      0.01         0.01
  YS02001779YS02001774        1.27      1.27      1.52      0.01         0.01
  YS02001783YS02001784        1.35      1.38      1.35      1.57         1.35
  YS02001784YS02001785        1.11      1.35      1.11      1.96         1.11
  YS02001786YS02001788        0.01      1.11      0.01      1.90         0.01
  YS02001790YS02001791        0.01      0.01      0.01      1.30         0.01
  YS02001793JiankangQianchi        0.01      0.01      7.21      0.01         0.01
  YS02001882YS02001884        1.26      1.26      1.30      0.01         0.01
  YS02001884YS02001887        1.35      1.35      1.37      0.01         0.01
  YS02001887YS02001890        1.39      1.39      1.40      0.01         0.01
  YS02001890YS02001895        1.23      1.23      1.42      0.01         0.01
  YS02001895YS02001898        1.21      1.21      1.23      0.01         0.01
  YS02001898YS02001901        1.24      1.24      1.35      0.01         0.01
  YS02001901YS02001904        1.33      1.33      1.35      0.01         0.01
  YS02001904YS02001907        1.33      1.33      1.90      0.01         0.01
  YS02001907YS02006553        1.96      1.96      1.99      0.01         0.01
  YS02001910YS02001907        1.42      1.42      1.88      0.01         0.01
  YS02001915YS02001910        1.28      1.28      1.42      0.01         0.01
  YS02001918YS02001915        1.09      1.09      1.28      0.01         0.01
  YS02001920YS02001918        1.09      1.09      1.11      0.01         0.01
  YS02001923YS02001920        1.02      1.02      1.11      0.01         0.01
  YS02001926YS02001923        0.01      0.01      0.01      0.01         0.01
  YS02001929YS02001926        0.01      0.01      0.01      0.01         0.01
  YS02006553YS02006556        1.53      1.53      1.90      0.01         0.01
  YS02006556YS02006558        1.64      1.64      1.90      0.01         0.01
  YS02006558YS02006561        1.14      1.51      1.14      1.94         1.14
  YS02006561YS02001783        1.04      1.04      1.38      0.01         0.01
  YS02163301YS02001633        1.92      1.92      1.94      0.01         0.01
  YS02163601YS02164001        1.88      1.88      1.94      0.06         0.01
  YS02164001YS02001641        1.88      1.88      1.88      1.25         1.16
  YSB1154YSB6556              1.76      1.76      1.95      0.01         0.01
  YSB1171HS02004479           1.55      1.55      1.95      0.01         0.01
  YSB1174YSB1171              1.92      1.92      2.03      0.01         0.01
  YSB6556YSB1171              1.76      1.76      2.08      0.01         0.01
  
  
  ***************
  Pumping Summary
  ***************
  
  ---------------------------------------------------------------------------------------------------------
                                                  Min       Avg       Max     Total     Power    % Time Off
                        Percent   Number of      Flow      Flow      Flow    Volume     Usage    Pump Curve
  Pump                 Utilized   Start-Ups       LPS       LPS       LPS  10^6 ltr     Kw-hr    Low   High
  ---------------------------------------------------------------------------------------------------------
  CC-R1                   25.35           8      0.00    794.46   1024.50     5.608    103.27    0.0   16.4
  CC-R2                   31.91          92      0.00   1023.08   1024.50     9.396    171.05    0.0   29.8
  CC-S1                   29.15          87      0.00    289.08    300.00     2.410     18.80    0.0    0.0
  CC-S2                   29.81          34      0.00    299.54    300.00     2.569     19.84    0.0    0.0
  JK-R1                    0.78          10      0.00   1411.76   1500.00     0.315      2.00    0.0    0.0
  JK-R2                   15.29          87      0.00   1495.90   1500.00     6.584     41.88    0.0    0.0
  JK-S                     5.35          79      0.00    446.48    450.00     0.685     13.64    0.0    0.0
  XR-1                    97.91           2      0.00     95.00     95.00     2.679      9.60    0.0    0.0
  XR-2                    93.94           2      0.00     95.00     95.00     2.570      8.76    0.0    0.0
  XR-3                     0.00           1      0.00     95.00     95.00     0.000      0.00    0.0    0.0
  XR-4                     0.00           1      0.00     95.00     95.00     0.000      0.00    0.0    0.0
  

  Analysis begun on:  Mon Jul 24 20:31:33 2023
  Analysis ended on:  Mon Jul 24 20:32:11 2023
  Total elapsed time: 00:00:38