
  OWA STORM WATER MANAGEMENT MODEL - VERSION v5.1.14 (OWA 2022-07-31)
  --------------------------------------------------------------

  WARNING 04: minimum elevation drop used for Conduit WS02004404WS02004405
  WARNING 03: negative offset ignored for Link YS02001904YS02001907
  
  *********************************************************
  NOTE: The summary statistics displayed in this report are
  based on results found at every computational time step,  
  not just on results from each reporting time step.
  *********************************************************
  
  ****************
  Analysis Options
  ****************
  Flow Units ............... LPS
  Process Models:
    Rainfall/Runoff ........ YES
    RDII ................... NO
    Snowmelt ............... NO
    Groundwater ............ NO
    Flow Routing ........... YES
    Ponding Allowed ........ NO
    Water Quality .......... NO
  Infiltration Method ...... HORTON
  Flow Routing Method ...... DYNWAVE
  Surcharge Method ......... EXTRAN
  Starting Date ............ 08/28/2015 08:00:00
  Ending Date .............. 08/28/2015 16:00:00
  Antecedent Dry Days ...... 8.0
  Report Time Step ......... 00:01:00
  Wet Time Step ............ 00:01:00
  Dry Time Step ............ 00:01:00
  Routing Time Step ........ 30.00 sec
  Variable Time Step ....... YES
  Maximum Trials ........... 8
  Number of Threads ........ 4
  Head Tolerance ........... 0.001500 m
  
  
  **************************        Volume         Depth
  Runoff Quantity Continuity     hectare-m            mm
  **************************     ---------       -------
  Total Precipitation ......         2.107        63.518
  Evaporation Loss .........         0.000         0.000
  Infiltration Loss ........         0.106         3.210
  Surface Runoff ...........         1.968        59.320
  Final Storage ............         0.033         0.999
  Continuity Error (%) .....        -0.017
  
  
  **************************        Volume        Volume
  Flow Routing Continuity        hectare-m      10^6 ltr
  **************************     ---------     ---------
  Dry Weather Inflow .......         0.025         0.251
  Wet Weather Inflow .......         1.967        19.669
  Groundwater Inflow .......         0.000         0.000
  RDII Inflow ..............         0.000         0.000
  External Inflow ..........         0.083         0.834
  External Outflow .........         2.059        20.593
  Flooding Loss ............         0.110         1.095
  Evaporation Loss .........         0.000         0.000
  Exfiltration Loss ........         0.000         0.000
  Initial Stored Volume ....         0.243         2.431
  Final Stored Volume ......         0.181         1.813
  Continuity Error (%) .....        -1.366
  
  
  *************************
  Highest Continuity Errors
  *************************
  Node YS02001884 (3.49%)
  Node YS02001583 (-2.68%)
  Node WS02006256 (-2.21%)
  Node YS02001774 (1.61%)
  Node WS02006252 (-1.02%)
  
  
  ***************************
  Time-Step Critical Elements
  ***************************
  Link WS02006252WS02006251 (38.72%)
  Link WS02006238WS02006235 (16.20%)
  Link WS02004404WS02004405 (8.69%)
  Link YS02006556YS02006558 (6.13%)
  Link WS02003066WSF200 (5.40%)
  
  
  ********************************
  Highest Flow Instability Indexes
  ********************************
  Link WS02006113WS02006111 (38)
  Link YS02001790YS02001791 (29)
  Link WS02006111WS02006112 (18)
  Link WS02006256WS02006235 (15)
  Link WS02006238WS02006235 (14)
  
  
  *************************
  Routing Time Step Summary
  *************************
  Minimum Time Step           :     0.01 sec
  Average Time Step           :     2.05 sec
  Maximum Time Step           :    30.00 sec
  Percent in Steady State     :    -0.00
  Average Iterations per Step :     2.90
  Percent Not Converging      :     7.62
  
  
  ***************************
  Subcatchment Runoff Summary
  ***************************
  
  ------------------------------------------------------------------------------------------------------------------------------
                            Total      Total      Total      Total     Imperv       Perv      Total       Total     Peak  Runoff
                           Precip      Runon       Evap      Infil     Runoff     Runoff     Runoff      Runoff   Runoff   Coeff
  Subcatchment                 mm         mm         mm         mm         mm         mm         mm    10^6 ltr      LPS
  ------------------------------------------------------------------------------------------------------------------------------
  sub60                     63.52       0.00       0.00       1.94      54.69       5.68      60.37        0.79   147.31   0.951
  sub61                     63.52       0.00       0.00       2.82      51.59       7.98      59.57        1.09   203.55   0.938
  sub62                     63.52       0.00       0.00       1.29      57.15       3.79      60.94        1.67   294.43   0.959
  sub63                     63.52       0.00       0.00       5.20      44.13      13.22      57.35        1.30   230.65   0.903
  sub64                     63.52       0.00       0.00       2.63      52.78       6.90      59.67        1.43   242.95   0.939
  sub65                     63.52       0.00       0.00       2.28      54.00       5.98      59.98        1.65   274.87   0.944
  sub66                     63.52       0.00       0.00       6.32      44.01      12.10      56.11        2.62   428.40   0.883
  sub67                     63.52       0.00       0.00       1.23      57.19       3.85      61.04        1.14   219.03   0.961
  sub68                     63.52       0.00       0.00       2.34      53.44       6.56      59.99        1.65   297.93   0.945
  sub69                     63.52       0.00       0.00       2.12      53.87       7.41      61.28        2.27   368.39   0.965
  sub70                     63.52       0.00       0.00       6.80      41.75      14.79      56.54        1.63   254.72   0.890
  sub71                     63.52       0.00       0.00       1.33      57.10       3.75      60.85        1.59   266.49   0.958
  sub72                     63.52       0.00       0.00       1.18      57.66       3.26      60.92        0.84   136.65   0.959
  
  
  ******************
  Node Depth Summary
  ******************
  
  ---------------------------------------------------------------------------------
                                 Average  Maximum  Maximum  Time of Max    Reported
                                   Depth    Depth      HGL   Occurrence   Max Depth
  Node                 Type       Meters   Meters   Meters  days hr:min      Meters
  ---------------------------------------------------------------------------------
  WS02003060           JUNCTION     0.23     0.38     5.32     0  03:04        0.38
  WS02003066           JUNCTION     0.19     0.30     5.85     0  03:03        0.30
  WS02003067           JUNCTION     0.50     0.70     6.02     0  03:03        0.70
  WS02003069           JUNCTION     0.26     0.43     5.01     0  03:04        0.43
  WS02003072           JUNCTION     0.32     0.50     4.87     0  03:05        0.50
  WS02003073           JUNCTION     0.18     0.30     4.36     0  03:06        0.30
  WS02004401           JUNCTION     0.60     0.85     6.85     0  03:00        0.85
  WS02004402           JUNCTION     0.64     0.88     6.84     0  02:49        0.88
  WS02004403           JUNCTION     0.66     0.89     6.82     0  03:01        0.89
  WS02004404           JUNCTION     0.74     0.96     6.81     0  03:01        0.96
  WS02004405           JUNCTION     0.73     0.96     6.81     0  02:49        0.96
  WS02004406           JUNCTION     0.75     0.96     6.79     0  03:01        0.96
  WS02004407           JUNCTION     0.18     0.30     6.61     0  03:01        0.30
  WS02004409           JUNCTION     0.40     0.67     6.44     0  03:01        0.67
  WS02004410           JUNCTION     0.42     0.68     6.40     0  03:02        0.68
  WS02004411           JUNCTION     0.44     0.69     6.37     0  03:02        0.69
  WS02004412           JUNCTION     0.46     0.70     6.34     0  03:02        0.70
  WS02004413           JUNCTION     0.63     0.86     6.33     0  03:03        0.86
  WS02006109           JUNCTION     0.67     1.20     7.82     0  01:57        0.97
  WS02006110           JUNCTION     0.67     1.29     7.88     0  01:57        0.93
  WS02006111           JUNCTION     0.18     0.90     7.60     0  00:00        0.40
  WS02006112           JUNCTION     0.76     2.68     8.56     0  00:00        1.14
  WS02006113           JUNCTION     0.28     1.40     8.29     0  00:00        0.46
  WS02006115           JUNCTION     0.49     1.65     7.79     0  00:00        0.86
  WS02006116           JUNCTION     0.57     1.06     7.10     0  00:00        0.83
  WS02006228           JUNCTION     0.66     1.20     7.85     0  01:56        1.01
  WS02006229           JUNCTION     0.64     1.25     7.94     0  01:56        1.06
  WS02006230           JUNCTION     0.64     1.48     8.22     0  01:56        1.13
  WS02006231           JUNCTION     0.45     1.14     8.26     0  01:56        0.90
  WS02006232           JUNCTION     0.59     1.57     8.61     0  01:56        1.11
  WS02006234           JUNCTION     0.52     1.96     9.12     0  01:56        1.14
  WS02006235           JUNCTION     0.56     1.81     8.98     0  01:56        1.24
  WS02006238           JUNCTION     0.58     1.85     8.99     0  01:56        1.28
  WS02006239           JUNCTION     0.55     1.77     8.98     0  01:56        1.26
  WS02006240           JUNCTION     0.51     1.69     8.99     0  01:56        1.34
  WS02006242           JUNCTION     0.58     1.55     8.82     0  01:56        1.40
  WS02006243           JUNCTION     0.49     1.36     8.78     0  01:56        1.24
  WS02006245           JUNCTION     0.49     1.25     8.74     0  01:56        1.15
  WS02006247           JUNCTION     0.51     1.21     8.71     0  01:56        1.16
  WS02006248           JUNCTION     0.46     1.10     8.69     0  01:56        1.09
  WS02006249           JUNCTION     0.49     1.09     8.69     0  01:56        1.09
  WS02006251           JUNCTION     0.49     1.55     9.22     0  01:56        1.18
  WS02006252           JUNCTION     0.35     1.50     9.74     0  01:49        0.73
  WS02006256           JUNCTION     1.13     2.35     9.28     0  00:10        2.35
  WSF200               JUNCTION     0.16     0.29     5.52     0  03:03        0.29
  YS02001580           JUNCTION     0.16     1.05     9.59     0  01:41        0.63
  YS02001583           JUNCTION     0.19     1.14     9.64     0  01:41        0.67
  YS02001586           JUNCTION     0.34     1.13     9.30     0  01:41        1.09
  YS02001590           JUNCTION     0.48     1.40     9.26     0  02:09        1.40
  YS02001593           JUNCTION     0.42     1.35     9.21     0  02:09        1.35
  YS02001596           JUNCTION     0.62     1.68     9.10     0  02:09        1.68
  YS02001600           JUNCTION     0.75     1.87     9.00     0  01:41        1.87
  YS02001601           JUNCTION     0.96     2.06     8.90     0  01:40        2.06
  YS02001602           JUNCTION     0.83     1.87     8.77     0  02:20        1.87
  YS02001605           JUNCTION     0.74     1.74     8.64     0  02:21        1.74
  YS02001607           JUNCTION     0.63     1.54     8.39     0  02:21        1.54
  YS02001610           JUNCTION     0.67     1.58     8.38     0  02:21        1.58
  YS02001613           JUNCTION     0.62     1.53     8.37     0  02:21        1.52
  YS02001616           JUNCTION     0.55     1.45     8.37     0  02:21        1.44
  YS02001619           JUNCTION     0.53     1.43     8.36     0  02:20        1.41
  YS02001622           JUNCTION     0.52     1.41     8.32     0  02:20        1.39
  YS02001625           JUNCTION     0.76     1.66     8.26     0  02:20        1.62
  YS02001629           JUNCTION     0.68     1.65     8.20     0  02:21        1.63
  YS02001633           JUNCTION     0.74     1.68     8.13     0  02:21        1.65
  YS02001641           JUNCTION     0.67     1.55     7.98     0  02:46        1.55
  YS02001644           JUNCTION     0.65     1.43     7.86     0  02:21        1.42
  YS02001647           JUNCTION     0.40     1.14     7.75     0  02:24        1.12
  YS02001649           JUNCTION     0.46     1.25     7.64     0  02:24        1.23
  YS02001652           JUNCTION     0.32     1.06     7.66     0  02:24        1.02
  YS02001655           JUNCTION     0.20     0.79     7.64     0  02:23        0.76
  YS02001658           JUNCTION     0.13     0.49     7.63     0  02:24        0.49
  YS02001661           JUNCTION     0.15     0.27     7.68     0  01:41        0.27
  YS02001664           JUNCTION     0.08     0.18     8.11     0  01:41        0.18
  YS02001745           JUNCTION     0.07     0.16     7.68     0  01:41        0.16
  YS02001748           JUNCTION     0.12     0.44     7.51     0  02:23        0.43
  YS02001751           JUNCTION     0.15     0.64     7.52     0  02:24        0.63
  YS02001754           JUNCTION     0.25     0.91     7.52     0  02:24        0.91
  YS02001757           JUNCTION     0.47     1.26     7.52     0  02:24        1.25
  YS02001759           JUNCTION     0.40     1.17     7.53     0  02:24        1.15
  YS02001762           JUNCTION     0.38     1.14     7.54     0  02:24        1.12
  YS02001765           JUNCTION     0.36     1.09     7.54     0  02:24        1.08
  YS02001767           JUNCTION     0.34     1.05     7.54     0  02:24        1.05
  YS02001770           JUNCTION     0.35     1.05     7.54     0  02:23        1.04
  YS02001774           JUNCTION     0.42     1.12     7.54     0  02:23        1.11
  YS02001779           JUNCTION     0.23     0.86     7.54     0  02:23        0.85
  YS02001783           JUNCTION     0.35     0.77     6.91     0  02:24        0.77
  YS02001784           JUNCTION     0.36     0.75     6.82     0  02:24        0.75
  YS02001786           JUNCTION     0.31     0.61     6.64     0  02:24        0.61
  YS02001788           JUNCTION     0.24     0.49     6.47     0  02:25        0.49
  YS02001790           JUNCTION     0.28     0.58     6.23     0  02:25        0.58
  YS02001791           JUNCTION     0.18     0.35     5.82     0  02:26        0.35
  YS02001793           JUNCTION     0.09     0.18     5.01     0  02:25        0.18
  YS02001882           JUNCTION     0.37     0.81     7.52     0  02:24        0.80
  YS02001884           JUNCTION     0.46     0.91     7.52     0  02:24        0.91
  YS02001887           JUNCTION     0.54     0.98     7.52     0  02:24        0.98
  YS02001890           JUNCTION     0.56     1.02     7.52     0  02:24        1.01
  YS02001895           JUNCTION     0.34     0.77     7.52     0  02:24        0.77
  YS02001898           JUNCTION     0.35     0.78     7.52     0  02:24        0.78
  YS02001901           JUNCTION     0.46     0.91     7.52     0  02:24        0.91
  YS02001904           JUNCTION     0.44     0.89     7.52     0  02:24        0.88
  YS02001907           JUNCTION     0.75     1.23     7.52     0  02:24        1.22
  YS02001910           JUNCTION     0.56     1.07     7.57     0  01:43        1.02
  YS02001915           JUNCTION     0.37     0.81     7.53     0  02:25        0.81
  YS02001918           JUNCTION     0.16     0.46     7.53     0  02:24        0.46
  YS02001920           JUNCTION     0.24     0.53     7.53     0  02:24        0.53
  YS02001923           JUNCTION     0.09     0.26     7.52     0  02:25        0.26
  YS02001926           JUNCTION     0.17     0.31     7.75     0  02:22        0.31
  YS02001929           JUNCTION     0.09     0.17     7.87     0  02:22        0.17
  YS02006553           JUNCTION     0.75     1.22     7.50     0  02:22        1.22
  YS02006556           JUNCTION     0.72     1.18     7.49     0  01:44        1.18
  YS02006558           JUNCTION     0.77     1.22     7.48     0  01:44        1.21
  YS02006561           JUNCTION     0.19     0.40     7.06     0  01:45        0.40
  YS02163301           JUNCTION     0.69     1.66     8.17     0  02:21        1.63
  YS02163601           JUNCTION     0.75     1.68     8.08     0  02:46        1.68
  YS02164001           JUNCTION     0.67     1.61     8.06     0  02:46        1.61
  CC-1                 OUTFALL      0.00     0.00     0.00     0  00:00        0.00
  CC-2                 OUTFALL      0.00     0.00     0.00     0  00:00        0.00
  JK-1                 OUTFALL      0.00     0.00     0.00     0  00:00        0.00
  JK-2                 OUTFALL      0.00     0.00     0.00     0  00:00        0.00
  WSC                  OUTFALL      0.18     0.30     0.97     0  03:06        0.30
  CC-storage           STORAGE      0.85     1.46     6.96     0  03:02        1.46
  JK-storage           STORAGE      1.18     3.00     3.80     0  00:00        2.12
  
  
  *******************
  Node Inflow Summary
  *******************
  
  -------------------------------------------------------------------------------------------------
                                  Maximum  Maximum                  Lateral       Total        Flow
                                  Lateral    Total  Time of Max      Inflow      Inflow     Balance
                                   Inflow   Inflow   Occurrence      Volume      Volume       Error
  Node                 Type           LPS      LPS  days hr:min    10^6 ltr    10^6 ltr     Percent
  -------------------------------------------------------------------------------------------------
  WS02003060           JUNCTION     16.53   554.51     0  03:03       0.476        5.17       0.047
  WS02003066           JUNCTION      0.00   537.71     0  03:03           0        4.69       0.030
  WS02003067           JUNCTION      0.00   537.62     0  03:03           0         4.7       0.090
  WS02003069           JUNCTION      0.32   554.69     0  03:04     0.00922        5.17       0.078
  WS02003072           JUNCTION      0.00   554.37     0  03:05           0        5.17       0.138
  WS02003073           JUNCTION      1.82   556.02     0  03:05      0.0524        5.22       0.113
  WS02004401           JUNCTION      0.00  1677.78     0  00:00           0        4.81       0.242
  WS02004402           JUNCTION      0.00  1171.33     0  00:01           0         4.8       0.234
  WS02004403           JUNCTION      0.00   907.51     0  00:01           0        4.78       0.230
  WS02004404           JUNCTION      0.16   854.53     0  00:01     0.00467        4.78       0.193
  WS02004405           JUNCTION      0.04   797.23     0  00:01      0.0011        4.77       0.262
  WS02004406           JUNCTION      0.00   655.67     0  00:02           0        4.76       0.463
  WS02004407           JUNCTION      0.00   538.76     0  03:01           0        4.73       0.024
  WS02004409           JUNCTION      0.00   538.42     0  03:01           0        4.73       0.059
  WS02004410           JUNCTION      0.00   538.25     0  03:02           0        4.73       0.099
  WS02004411           JUNCTION      0.00   538.10     0  03:02           0        4.72       0.122
  WS02004412           JUNCTION      0.00   538.00     0  03:02           0        4.72       0.159
  WS02004413           JUNCTION      0.00   537.84     0  03:02           0        4.71       0.289
  WS02006109           JUNCTION      1.23  1308.01     0  00:00      0.0354        4.74       0.185
  WS02006110           JUNCTION      0.00   559.18     0  01:57           0        4.71      -0.763
  WS02006111           JUNCTION      0.00  1176.04     0  00:00           0        4.74      -0.816
  WS02006112           JUNCTION      0.00  2307.30     0  00:00           0        4.78      -0.011
  WS02006113           JUNCTION      0.00   570.47     0  01:57           0         4.7      -1.041
  WS02006115           JUNCTION      0.00   899.27     0  00:00           0        4.75      -0.674
  WS02006116           JUNCTION      0.00  1098.16     0  00:01           0        4.79      -0.474
  WS02006228           JUNCTION      0.00   558.25     0  01:57           0        4.68       0.084
  WS02006229           JUNCTION      0.00   558.65     0  01:57           0        4.67       0.194
  WS02006230           JUNCTION     10.28   582.09     0  02:17       0.296        4.66       0.036
  WS02006231           JUNCTION      0.00   573.72     0  02:16           0        4.35      -0.025
  WS02006232           JUNCTION      0.00   573.04     0  02:16           0        4.36       0.225
  WS02006234           JUNCTION      0.00   568.70     0  02:16           0        4.34      -0.301
  WS02006235           JUNCTION      0.00   563.38     0  01:56           0        4.44       0.401
  WS02006238           JUNCTION      0.00   421.13     0  02:01           0        3.39      -0.143
  WS02006239           JUNCTION      0.00   420.94     0  02:01           0        3.33      -0.110
  WS02006240           JUNCTION      0.00   418.69     0  02:01           0        3.31      -0.013
  WS02006242           JUNCTION      0.00   419.11     0  02:01           0        3.31       0.094
  WS02006243           JUNCTION      0.00   418.57     0  02:01           0        3.31       0.097
  WS02006245           JUNCTION      0.00   417.40     0  02:01           0        3.33       0.315
  WS02006247           JUNCTION      0.00   417.05     0  02:01           0        3.32      -0.021
  WS02006248           JUNCTION      0.00   419.04     0  01:52           0        3.33       0.063
  WS02006249           JUNCTION      0.00   766.28     0  00:00           0        3.59       0.219
  WS02006251           JUNCTION      0.08   453.22     0  00:00     0.00222        3.58      -0.389
  WS02006252           JUNCTION      0.00   400.00     0  00:00           0        3.54      -1.007
  WS02006256           JUNCTION      0.00   300.00     0  00:10           0        1.51      -2.166
  WSF200               JUNCTION      0.00   537.76     0  03:03           0        4.69       0.011
  YS02001580           JUNCTION      0.00    67.09     0  01:41           0     0.00583      -0.376
  YS02001583           JUNCTION      0.00    98.83     0  01:40           0       0.021      -2.613
  YS02001586           JUNCTION    254.72   254.91     0  02:22        1.63        1.65       0.074
  YS02001590           JUNCTION      0.00   254.82     0  02:22           0        1.63      -0.033
  YS02001593           JUNCTION      0.00   254.86     0  02:22           0        1.63       0.003
  YS02001596           JUNCTION      0.00   254.96     0  02:22           0        1.63      -0.019
  YS02001600           JUNCTION      0.00   254.78     0  02:22           0        1.63       0.017
  YS02001601           JUNCTION    368.39   622.60     0  02:22        2.27         3.9       0.017
  YS02001602           JUNCTION      0.00   513.20     0  01:50           0        3.57       0.013
  YS02001605           JUNCTION      0.00   513.25     0  01:50           0        3.57       0.016
  YS02001607           JUNCTION      0.00   513.28     0  01:50           0        3.57       0.055
  YS02001610           JUNCTION      0.00   513.33     0  01:50           0        3.57       0.077
  YS02001613           JUNCTION      0.00   513.56     0  01:52           0        3.57       0.053
  YS02001616           JUNCTION      0.00   513.86     0  01:52           0        3.58       0.016
  YS02001619           JUNCTION    428.40   882.71     0  02:14        2.62        6.19       0.001
  YS02001622           JUNCTION      0.00   881.84     0  02:14           0        6.18      -0.000
  YS02001625           JUNCTION      0.00   881.32     0  02:14           0        6.18       0.183
  YS02001629           JUNCTION      0.00   881.11     0  02:14           0        6.17      -0.001
  YS02001633           JUNCTION    275.07  1147.94     0  01:41        1.66        7.83       0.046
  YS02001641           JUNCTION      0.00  1148.08     0  01:41           0        7.84       0.038
  YS02001644           JUNCTION    242.99  1391.23     0  01:41        1.43        9.26       0.037
  YS02001647           JUNCTION      0.00  1392.36     0  01:41           0        9.24       0.002
  YS02001649           JUNCTION      0.00  1629.97     0  01:42           0        10.5       0.005
  YS02001652           JUNCTION      0.00   255.32     0  01:43           0         1.3      -0.140
  YS02001655           JUNCTION      0.15   256.48     0  02:22     0.00443        1.31       0.109
  YS02001658           JUNCTION      0.00   230.37     0  01:41           0         1.3      -0.007
  YS02001661           JUNCTION      0.00   230.54     0  01:41           0         1.3       0.027
  YS02001664           JUNCTION    230.65   230.65     0  01:41         1.3         1.3      -0.010
  YS02001745           JUNCTION    147.32   147.32     0  01:41       0.793       0.793       0.075
  YS02001748           JUNCTION      0.04   147.28     0  01:41      0.0013       0.794      -0.112
  YS02001751           JUNCTION      0.01   157.39     0  02:23    0.000317       0.795       0.153
  YS02001754           JUNCTION      0.26   147.46     0  01:41     0.00749       0.801      -0.193
  YS02001757           JUNCTION      0.00  2199.75     0  01:43           0        14.1       0.030
  YS02001759           JUNCTION    203.59   485.30     0  01:45        1.09        2.78      -0.015
  YS02001762           JUNCTION      0.00   307.86     0  01:45           0        1.69       0.004
  YS02001765           JUNCTION      0.00   305.82     0  01:45           0        1.69       0.005
  YS02001767           JUNCTION      0.54   307.19     0  01:45      0.0154        1.69       0.014
  YS02001770           JUNCTION    294.58   311.87     0  01:45        1.67        1.72      -0.017
  YS02001774           JUNCTION      0.00    56.46     0  01:06           0      0.0737       1.633
  YS02001779           JUNCTION      0.01    35.06     0  01:44    0.000144      0.0225       0.151
  YS02001783           JUNCTION      0.00   841.69     0  02:24           0        5.26       0.007
  YS02001784           JUNCTION      1.06   842.92     0  02:24      0.0305        5.29       0.010
  YS02001786           JUNCTION      0.06   842.44     0  02:24     0.00162         5.3       0.013
  YS02001788           JUNCTION      0.07   841.94     0  02:25     0.00204         5.3       0.008
  YS02001790           JUNCTION      0.15   843.68     0  02:25     0.00446         5.3       0.020
  YS02001791           JUNCTION      0.00   891.39     0  02:24           0         5.3      -0.007
  YS02001793           JUNCTION      0.00   851.51     0  02:26           0         5.3       0.005
  YS02001882           JUNCTION      0.00    38.22     0  01:12           0      0.0278       2.705
  YS02001884           JUNCTION      0.00    75.90     0  01:12           0      0.0732       3.615
  YS02001887           JUNCTION    219.48   228.39     0  01:38        1.15        1.19       0.365
  YS02001890           JUNCTION      0.00   220.50     0  01:39           0        1.14       0.458
  YS02001895           JUNCTION      0.00   218.51     0  01:39           0        1.13       0.232
  YS02001898           JUNCTION      0.00   213.80     0  01:38           0        1.13      -0.025
  YS02001901           JUNCTION      0.00   223.71     0  01:44           0        1.14       0.311
  YS02001904           JUNCTION      0.00   232.59     0  01:44           0        1.15       0.253
  YS02001907           JUNCTION      0.00   581.08     0  02:27           0        3.66       0.489
  YS02001910           JUNCTION      0.00   428.21     0  01:46           0        2.51       0.292
  YS02001915           JUNCTION    266.51   393.86     0  02:25        1.59        2.51       0.064
  YS02001918           JUNCTION      0.00   141.62     0  02:26           0       0.921       0.037
  YS02001920           JUNCTION      2.87   140.37     0  02:24      0.0827       0.922       0.121
  YS02001923           JUNCTION      0.04   136.67     0  02:22     0.00109        0.84       0.002
  YS02001926           JUNCTION      0.05   136.69     0  02:22      0.0015       0.839       0.040
  YS02001929           JUNCTION    136.65   136.65     0  02:22       0.837       0.837      -0.007
  YS02006553           JUNCTION      0.00   581.28     0  02:27           0        3.66       0.313
  YS02006556           JUNCTION      0.00   581.39     0  02:27           0        3.67       0.216
  YS02006558           JUNCTION    298.81   841.64     0  02:24        1.68        5.31       0.057
  YS02006561           JUNCTION      0.00   842.03     0  02:24           0        5.26       0.004
  YS02163301           JUNCTION      0.00   879.31     0  02:12           0        6.18       0.030
  YS02163601           JUNCTION      0.11  1147.96     0  01:42     0.00317        7.82       0.068
  YS02164001           JUNCTION      0.00  1147.93     0  01:42           0        7.83       0.035
  CC-1                 OUTFALL       0.00   683.00     0  01:10           0        4.55       0.000
  CC-2                 OUTFALL       0.00   683.00     0  00:10           0        6.91       0.000
  JK-1                 OUTFALL       0.00  1000.00     0  00:00           0        2.27       0.000
  JK-2                 OUTFALL       0.00  1000.00     0  00:00           0        1.66       0.000
  WSC                  OUTFALL       0.00   555.86     0  03:06           0        5.21       0.000
  CC-storage           STORAGE       0.00  2158.18     0  01:44           0        16.4      -0.165
  JK-storage           STORAGE       0.00   852.02     0  02:25           0        5.45      -0.316
  
  
  **********************
  Node Surcharge Summary
  **********************
  
  Surcharging occurs when water rises above the top of the highest conduit.
  ---------------------------------------------------------------------
                                               Max. Height   Min. Depth
                                   Hours       Above Crown    Below Rim
  Node                 Type      Surcharged         Meters       Meters
  ---------------------------------------------------------------------
  WS02006109           JUNCTION        1.69          0.382        1.438
  WS02006110           JUNCTION        0.99          0.383        1.467
  WS02006111           JUNCTION        0.01          0.087        1.783
  WS02006112           JUNCTION        0.97          1.680        0.000
  WS02006113           JUNCTION        0.01          0.600        1.330
  WS02006115           JUNCTION        0.01          0.642        1.608
  WS02006116           JUNCTION        0.01          0.000        2.290
  WS02006228           JUNCTION        1.68          0.371        1.829
  WS02006229           JUNCTION        1.69          0.449        2.001
  WS02006230           JUNCTION        0.99          0.396        1.174
  WS02006231           JUNCTION        1.01          0.426        1.104
  WS02006232           JUNCTION        1.80          0.867        0.613
  WS02006234           JUNCTION        1.09          1.240        0.000
  WS02006235           JUNCTION        1.68          1.103        0.187
  WS02006238           JUNCTION        1.72          1.127        0.303
  WS02006239           JUNCTION        1.68          1.032        0.258
  WS02006240           JUNCTION        1.68          0.984        0.406
  WS02006242           JUNCTION        1.75          0.820        0.000
  WS02006243           JUNCTION        1.70          0.647        0.123
  WS02006245           JUNCTION        1.70          0.543        0.307
  WS02006247           JUNCTION        1.73          0.497        0.263
  WS02006248           JUNCTION        1.69          0.380        0.000
  WS02006249           JUNCTION        1.71          0.390        0.000
  WS02006251           JUNCTION        1.03          0.522        0.658
  WS02006252           JUNCTION        2.03          1.100        0.000
  WS02006256           JUNCTION        6.80          2.050        0.000
  YS02001580           JUNCTION        0.17          0.450        0.000
  YS02001583           JUNCTION        0.20          0.500        0.000
  YS02001586           JUNCTION        1.38          0.510        0.000
  YS02001590           JUNCTION        1.44          0.746        0.004
  YS02001593           JUNCTION        1.45          0.726        0.114
  YS02001596           JUNCTION        1.65          0.955        0.115
  YS02001600           JUNCTION        1.98          1.190        0.000
  YS02001601           JUNCTION        2.17          1.440        0.000
  YS02001602           JUNCTION        2.10          1.270        0.000
  YS02001605           JUNCTION        2.08          1.136        0.044
  YS02001607           JUNCTION        1.42          0.539        0.141
  YS02001610           JUNCTION        1.44          0.584        0.096
  YS02001613           JUNCTION        1.41          0.533        0.167
  YS02001616           JUNCTION        1.35          0.454        0.156
  YS02001619           JUNCTION        1.23          0.427        0.183
  YS02001622           JUNCTION        1.17          0.412        0.208
  YS02001625           JUNCTION        1.51          0.655        0.125
  YS02001629           JUNCTION        0.76          0.271        0.199
  YS02001633           JUNCTION        1.52          0.658        0.402
  YS02001641           JUNCTION        1.46          0.545        0.555
  YS02001644           JUNCTION        1.42          0.431        0.489
  YS02001647           JUNCTION        0.60          0.142        0.758
  YS02001649           JUNCTION        0.80          0.255        0.795
  YS02001652           JUNCTION        0.02          0.031        1.099
  YS02001757           JUNCTION        0.85          0.260        0.950
  YS02001759           JUNCTION        0.76          0.168        1.042
  YS02001762           JUNCTION        0.74          0.135        1.015
  YS02001765           JUNCTION        0.23          0.088        1.012
  YS02001767           JUNCTION        0.14          0.054        0.976
  YS02001770           JUNCTION        0.06          0.019        0.901
  YS02001774           JUNCTION        0.73          0.119        0.931
  YS02001907           JUNCTION        1.53          0.216        0.734
  YS02001910           JUNCTION        0.11          0.066        1.034
  YS02006553           JUNCTION        1.57          0.221        0.969
  YS02006556           JUNCTION        0.75          0.143        1.207
  YS02006558           JUNCTION        0.66          0.115        1.285
  YS02163301           JUNCTION        1.51          0.656        0.374
  YS02163601           JUNCTION        1.55          0.684        0.396
  YS02164001           JUNCTION        1.46          0.606        0.494
  
  
  *********************
  Node Flooding Summary
  *********************
  
  Flooding refers to all water that overflows a node, whether it ponds or not.
  --------------------------------------------------------------------------
                                                             Total   Maximum
                                 Maximum   Time of Max       Flood    Ponded
                        Hours       Rate    Occurrence      Volume     Depth
  Node                 Flooded       LPS   days hr:min    10^6 ltr    Meters
  --------------------------------------------------------------------------
  WS02006112              0.01   1547.89      0  00:00       0.047     0.000
  WS02006234              0.01     94.07      0  01:56       0.000     0.000
  WS02006242              0.01     10.73      0  01:56       0.000     0.000
  WS02006248              0.01      0.63      0  01:56       0.000     0.000
  WS02006249              1.02     82.35      0  02:17       0.257     0.000
  WS02006252              0.01      0.91      0  01:49       0.000     0.000
  WS02006256              1.39    289.72      0  01:55       0.484     0.000
  YS02001580              0.01     59.55      0  01:41       0.000     0.000
  YS02001583              0.01     25.54      0  01:41       0.000     0.000
  YS02001586              0.01     35.58      0  01:41       0.000     0.000
  YS02001600              0.01      0.40      0  01:41       0.000     0.000
  YS02001601              1.04    221.18      0  02:21       0.328     0.000
  YS02001602              0.02      2.40      0  02:20       0.000     0.000
  
  
  **********************
  Storage Volume Summary
  **********************
  
  --------------------------------------------------------------------------------------------------
                         Average     Avg  Evap Exfil       Maximum     Max    Time of Max    Maximum
                          Volume    Pcnt  Pcnt  Pcnt        Volume    Pcnt     Occurrence    Outflow
  Storage Unit           1000 m3    Full  Loss  Loss       1000 m3    Full    days hr:min        LPS
  --------------------------------------------------------------------------------------------------
  CC-storage               2.367      37     0     0         4.080      64       0  03:02    1766.00
  JK-storage               0.059      20     0     0         0.151      52       0  00:00    2000.00
  
  
  ***********************
  Outfall Loading Summary
  ***********************
  
  -----------------------------------------------------------
                         Flow       Avg       Max       Total
                         Freq      Flow      Flow      Volume
  Outfall Node           Pcnt       LPS       LPS    10^6 ltr
  -----------------------------------------------------------
  CC-1                  39.57    683.00    683.00       4.547
  CC-2                  53.91    683.00    683.00       6.908
  JK-1                  13.01   1000.00   1000.00       2.269
  JK-2                  11.66   1000.00   1000.00       1.659
  WSC                   99.99    248.93    555.86       5.210
  -----------------------------------------------------------
  System                43.63   3614.93    555.86      20.592
  
  
  ********************
  Link Flow Summary
  ********************
  
  -----------------------------------------------------------------------------
                                 Maximum  Time of Max   Maximum    Max/    Max/
                                  |Flow|   Occurrence   |Veloc|    Full    Full
  Link                 Type          LPS  days hr:min     m/sec    Flow   Depth
  -----------------------------------------------------------------------------
  1                    CONDUIT    555.86     0  03:06      2.83    0.19    0.30
  WS02003060WS02003069 CONDUIT    554.37     0  03:04      1.64    0.22    0.34
  WS02003066WSF200     CONDUIT    537.76     0  03:03      2.85    0.09    0.22
  WS02003067WS02003066 CONDUIT    537.71     0  03:03      1.21    0.17    0.42
  WS02003069WS02003072 CONDUIT    554.37     0  03:05      1.37    0.27    0.39
  WS02003072WS02003073 CONDUIT    554.20     0  03:05      1.44    1.20    0.37
  WS02004401WS02004402 CONDUIT   1171.33     0  00:01      2.51    1.41    0.86
  WS02004402WS02004403 CONDUIT    907.51     0  00:01      2.15    1.30    0.88
  WS02004403WS02004404 CONDUIT    854.37     0  00:01      1.99    0.62    0.93
  WS02004404WS02004405 CONDUIT    797.19     0  00:01      2.28    7.81    0.96
  WS02004405WS02004406 CONDUIT    655.67     0  00:02      2.17    1.29    0.96
  WS02004406WS02004407 CONDUIT    538.76     0  03:01      1.04    0.24    0.63
  WS02004407WS02004409 CONDUIT    538.42     0  03:01      1.91    0.19    0.48
  WS02004409WS02004410 CONDUIT    538.25     0  03:02      1.32    0.70    0.68
  WS02004410WS02004411 CONDUIT    538.10     0  03:02      1.24    0.73    0.69
  WS02004411WS02004412 CONDUIT    538.00     0  03:02      1.16    0.76    0.69
  WS02004412WS02004413 CONDUIT    537.84     0  03:02      1.14    0.36    0.78
  WS02004413WS02003067 CONDUIT    537.62     0  03:03      1.11    0.23    0.59
  WS02006109WS02006110 CONDUIT   1306.78     0  00:00      3.14    2.51    1.00
  WS02006110WS02006113 CONDUIT    570.47     0  01:57      1.39    0.52    1.00
  WS02006111WS02006112 CONDUIT   2307.30     0  00:00      9.18    1.10    0.91
  WS02006112WS02006115 CONDUIT    899.27     0  00:00      1.16    0.53    1.00
  WS02006113WS02006111 CONDUIT   1176.04     0  00:00      2.47    1.41    1.00
  WS02006115WS02006116 CONDUIT   1098.16     0  00:01      1.72    1.41    1.00
  WS02006116WS02004401 CONDUIT   1677.78     0  00:00      2.92    2.31    0.84
  WS02006228WS02006109 CONDUIT    559.06     0  01:57      1.40    2.44    1.00
  WS02006229WS02006228 CONDUIT    558.25     0  01:57      1.24    1.85    1.00
  WS02006230WS02006229 CONDUIT    558.65     0  01:57      1.45   12.43    1.00
  WS02006231WS02006230 CONDUIT    571.81     0  02:17      1.56    8.67    1.00
  WS02006232WS02006231 CONDUIT    573.72     0  02:16      1.52    1.20    1.00
  WS02006234WS02006232 CONDUIT    573.04     0  02:16      1.49    1.16    1.00
  WS02006235WS02006234 CONDUIT    568.70     0  02:16      1.48    6.00    1.00
  WS02006238WS02006235 CONDUIT    422.16     0  02:01      1.69    0.94    1.00
  WS02006239WS02006238 CONDUIT    421.13     0  02:01      1.28    1.35    1.00
  WS02006240WS02006239 CONDUIT    420.94     0  02:01      1.33    1.32    1.00
  WS02006242WS02006240 CONDUIT    418.69     0  02:01      1.17    1.66    1.00
  WS02006243WS02006242 CONDUIT    419.11     0  02:01      1.45    0.90    1.00
  WS02006245WS02006243 CONDUIT    418.57     0  02:01      1.46    1.24    1.00
  WS02006247WS02006245 CONDUIT    417.40     0  02:01      1.43    3.31    1.00
  WS02006248WS02006247 CONDUIT    417.05     0  02:01      1.48    0.91    1.00
  WS02006249WS02006248 CONDUIT    419.04     0  01:52      1.45    2.30    1.00
  WS02006251WS02006249 CONDUIT    766.28     0  00:00      2.75    2.21    1.00
  WS02006252WS02006251 CONDUIT    453.14     0  00:00     18.14    1.66    1.00
  WS02006256WS02006235 CONDUIT    288.03     0  05:10      4.18    3.05    1.00
  WSF200WS02003060     CONDUIT    537.98     0  03:03      2.06    0.12    0.28
  YS02001580YS02001583 CONDUIT     67.09     0  01:41      0.51    0.26    1.00
  YS02001583YS02001586 CONDUIT     97.88     0  01:40      0.44    0.15    1.00
  YS02001586YS02001590 CONDUIT    254.82     0  02:22      1.27    0.45    1.00
  YS02001590YS02001593 CONDUIT    254.86     0  02:22      1.05    1.60    1.00
  YS02001593YS02001596 CONDUIT    254.96     0  02:22      1.70    0.40    1.00
  YS02001596YS02001600 CONDUIT    254.78     0  02:22      1.24    0.50    1.00
  YS02001600YS02001601 CONDUIT    254.92     0  02:22      0.90    0.44    1.00
  YS02001601YS02001602 CONDUIT    513.20     0  01:50      1.82    1.85    1.00
  YS02001602YS02001605 CONDUIT    513.25     0  01:50      1.82   10.86    1.00
  YS02001605YS02001607 CONDUIT    513.28     0  01:50      1.82    2.81    1.00
  YS02001607YS02001610 CONDUIT    513.33     0  01:50      0.75    0.49    1.00
  YS02001610YS02001613 CONDUIT    513.56     0  01:52      0.65    0.59    1.00
  YS02001613YS02001616 CONDUIT    513.86     0  01:52      0.71    0.44    1.00
  YS02001616YS02001619 CONDUIT    514.05     0  01:52      0.80    0.89    1.00
  YS02001619YS02001622 CONDUIT    881.84     0  02:14      1.63    1.30    1.00
  YS02001622YS02001625 CONDUIT    881.32     0  02:14      1.12    0.47    1.00
  YS02001625YS02001629 CONDUIT    881.11     0  02:14      1.13    0.42    1.00
  YS02001629YS02163301 CONDUIT    879.31     0  02:12      1.12    1.08    1.00
  YS02001633YS02163601 CONDUIT   1147.85     0  01:42      1.46    1.20    1.00
  YS02001641YS02001644 CONDUIT   1148.29     0  01:41      1.46    3.71    1.00
  YS02001644YS02001647 CONDUIT   1392.36     0  01:41      1.96    0.82    1.00
  YS02001647YS02001649 CONDUIT   1399.99     0  01:42      2.28    0.74    1.00
  YS02001649YS02001757 CONDUIT   1643.62     0  01:43      2.49    1.00    1.00
  YS02001652YS02001649 CONDUIT    259.70     0  01:42      1.22    0.13    1.00
  YS02001655YS02001652 CONDUIT    255.32     0  01:43      1.60    0.12    0.89
  YS02001658YS02001655 CONDUIT    256.32     0  02:22      1.81    0.11    0.63
  YS02001661YS02001658 CONDUIT    230.37     0  01:41      1.96    0.09    0.34
  YS02001664YS02001661 CONDUIT    230.54     0  01:41      1.71    0.07    0.23
  YS02001745YS02001748 CONDUIT    147.23     0  01:41      1.79    0.06    0.25
  YS02001748YS02001751 CONDUIT    157.38     0  02:23      1.50    0.08    0.53
  YS02001751YS02001754 CONDUIT    147.20     0  01:41      1.45    0.07    0.75
  YS02001754YS02001757 CONDUIT    183.25     0  01:39      0.96    0.07    0.96
  YS02001757CaochengTiaoxuchi CONDUIT   2158.18     0  01:44      3.32    0.93    1.00
  YS02001759YS02001757 CONDUIT    485.86     0  01:46      1.26    0.35    1.00
  YS02001762YS02001759 CONDUIT    315.98     0  01:45      0.74    0.36    1.00
  YS02001765YS02001762 CONDUIT    307.86     0  01:45      0.85    0.29    1.00
  YS02001767YS02001765 CONDUIT    305.82     0  01:45      0.91    0.38    1.00
  YS02001770YS02001767 CONDUIT    306.66     0  01:45      0.83    1.21    1.00
  YS02001774YS02001770 CONDUIT     56.46     0  01:06      0.66    0.04    1.00
  YS02001779YS02001774 CONDUIT     35.05     0  01:44      0.16    0.02    0.93
  YS02001783YS02001784 CONDUIT    841.86     0  02:24      1.71    1.16    0.95
  YS02001784YS02001785 CONDUIT    842.39     0  02:24      1.84    1.96    0.85
  YS02001786YS02001788 CONDUIT    841.87     0  02:25      2.28    1.62    0.69
  YS02001788YS02001790 CONDUIT    843.52     0  02:25      2.37    0.62    0.67
  YS02001790YS02001791 CONDUIT    891.39     0  02:24      2.96    0.97    0.58
  YS02001791YS02001793 CONDUIT    851.51     0  02:26      5.97    0.37    0.33
  YS02001793JiankangQianchi CONDUIT    852.02     0  02:25      1.77    0.07    0.59
  YS02001882YS02001884 CONDUIT     38.22     0  01:12      0.36    0.04    0.83
  YS02001884YS02001887 CONDUIT     75.90     0  01:12      0.30    0.10    0.92
  YS02001887YS02001890 CONDUIT    220.50     0  01:39      0.36    0.38    0.98
  YS02001890YS02001895 CONDUIT    218.51     0  01:39      0.39    0.10    0.89
  YS02001895YS02001898 CONDUIT    213.80     0  01:38      0.66    0.37    0.76
  YS02001898YS02001901 CONDUIT    223.71     0  01:44      0.55    0.14    0.84
  YS02001901YS02001904 CONDUIT    232.59     0  01:44      0.58    0.36    0.90
  YS02001904YS02001907 CONDUIT    207.27     0  01:20      0.33    0.07    0.94
  YS02001907YS02006553 CONDUIT    581.28     0  02:27      0.65    0.68    1.00
  YS02001910YS02001907 CONDUIT    404.54     0  01:47      0.52    0.23    1.00
  YS02001915YS02001910 CONDUIT    428.21     0  01:46      1.05    0.21    0.90
  YS02001918YS02001915 CONDUIT    148.89     0  02:29      0.44    0.08    0.64
  YS02001920YS02001918 CONDUIT    141.62     0  02:26      0.67    0.14    0.49
  YS02001923YS02001920 CONDUIT    137.50     0  02:24      0.72    0.06    0.39
  YS02001926YS02001923 CONDUIT    136.64     0  02:22      0.86    0.20    0.26
  YS02001929YS02001926 CONDUIT    136.63     0  02:22      0.95    0.06    0.24
  YS02006553YS02006556 CONDUIT    581.39     0  02:27      0.74    0.50    1.00
  YS02006556YS02006558 CONDUIT    581.56     0  02:27      0.74    0.46    1.00
  YS02006558YS02006561 CONDUIT    842.03     0  02:24      3.34    1.86    0.84
  YS02006561YS02001783 CONDUIT    841.69     0  02:24      2.14    0.44    0.73
  YS02163301YS02001633 CONDUIT    878.82     0  02:12      1.12    0.83    1.00
  YS02163601YS02164001 CONDUIT   1147.93     0  01:42      1.46    1.02    1.00
  YS02164001YS02001641 CONDUIT   1148.08     0  01:41      1.46    1.57    1.00
  CC-R1                PUMP       683.00     0  01:10              1.00
  CC-R2                PUMP       683.00     0  00:10              1.00
  CC-S1                PUMP       200.00     0  00:00              1.00
  CC-S2                PUMP       200.00     0  00:00              1.00
  JK-R1                PUMP      1000.00     0  00:00              1.00
  JK-R2                PUMP      1000.00     0  00:00              1.00
  JK-S                 PUMP       300.00     0  00:10              1.00
  
  
  ***************************
  Flow Classification Summary
  ***************************
  
  -------------------------------------------------------------------------------------
                      Adjusted    ---------- Fraction of Time in Flow Class ---------- 
                       /Actual         Up    Down  Sub   Sup   Up    Down  Norm  Inlet 
  Conduit               Length    Dry  Dry   Dry   Crit  Crit  Crit  Crit  Ltd   Ctrl  
  -------------------------------------------------------------------------------------
  1                       1.00   0.00  0.00  0.00  0.00  1.00  0.00  0.00  0.34  0.00
  WS02003060WS02003069    1.00   0.00  0.00  0.00  0.94  0.06  0.00  0.00  0.69  0.00
  WS02003066WSF200        1.00   0.06  0.00  0.00  0.00  0.94  0.00  0.00  0.82  0.00
  WS02003067WS02003066    1.00   0.02  0.03  0.00  0.95  0.00  0.00  0.00  0.00  0.00
  WS02003069WS02003072    1.00   0.00  0.00  0.00  1.00  0.00  0.00  0.00  0.74  0.00
  WS02003072WS02003073    1.00   0.00  0.00  0.00  0.00  0.00  0.00  1.00  0.00  0.00
  WS02004401WS02004402    1.00   0.00  0.00  0.00  1.00  0.00  0.00  0.00  0.00  0.00
  WS02004402WS02004403    1.00   0.00  0.00  0.00  1.00  0.00  0.00  0.00  0.00  0.00
  WS02004403WS02004404    1.00   0.00  0.00  0.00  1.00  0.00  0.00  0.00  0.00  0.00
  WS02004404WS02004405    1.00   0.00  0.00  0.00  1.00  0.00  0.00  0.00  0.00  0.00
  WS02004405WS02004406    1.00   0.00  0.00  0.00  1.00  0.00  0.00  0.00  0.00  0.00
  WS02004406WS02004407    1.00   0.00  0.00  0.00  1.00  0.00  0.00  0.00  0.00  0.00
  WS02004407WS02004409    1.00   0.00  0.00  0.00  0.99  0.01  0.00  0.00  0.99  0.00
  WS02004409WS02004410    1.00   0.00  0.00  0.00  1.00  0.00  0.00  0.00  0.00  0.00
  WS02004410WS02004411    1.00   0.00  0.00  0.00  1.00  0.00  0.00  0.00  0.00  0.00
  WS02004411WS02004412    1.00   0.00  0.00  0.00  0.99  0.00  0.00  0.00  0.00  0.00
  WS02004412WS02004413    1.00   0.00  0.00  0.00  0.99  0.01  0.00  0.00  0.00  0.00
  WS02004413WS02003067    1.00   0.00  0.02  0.00  0.00  0.00  0.98  0.00  0.00  0.00
  WS02006109WS02006110    1.00   0.00  0.00  0.00  1.00  0.00  0.00  0.00  0.00  0.00
  WS02006110WS02006113    1.00   0.00  0.00  0.00  1.00  0.00  0.00  0.00  0.00  0.00
  WS02006111WS02006112    1.00   0.00  0.00  0.00  1.00  0.00  0.00  0.00  1.00  0.00
  WS02006112WS02006115    1.00   0.00  0.00  0.00  1.00  0.00  0.00  0.00  0.00  0.00
  WS02006113WS02006111    1.00   0.00  0.00  0.00  0.00  1.00  0.00  0.00  0.11  0.00
  WS02006115WS02006116    1.00   0.00  0.00  0.00  1.00  0.00  0.00  0.00  0.00  0.00
  WS02006116WS02004401    1.00   0.00  0.00  0.00  1.00  0.00  0.00  0.00  0.00  0.00
  WS02006228WS02006109    1.00   0.00  0.00  0.00  1.00  0.00  0.00  0.00  0.00  0.00
  WS02006229WS02006228    1.00   0.00  0.00  0.00  1.00  0.00  0.00  0.00  0.00  0.00
  WS02006230WS02006229    1.00   0.00  0.00  0.00  1.00  0.00  0.00  0.00  0.03  0.00
  WS02006231WS02006230    1.00   0.00  0.00  0.00  0.41  0.00  0.59  0.00  0.00  0.00
  WS02006232WS02006231    1.00   0.00  0.00  0.00  0.99  0.00  0.01  0.00  0.00  0.00
  WS02006234WS02006232    1.00   0.00  0.00  0.00  1.00  0.00  0.00  0.00  0.03  0.00
  WS02006235WS02006234    1.00   0.00  0.00  0.00  0.95  0.00  0.05  0.00  0.00  0.00
  WS02006238WS02006235    1.00   0.00  0.00  0.00  0.99  0.00  0.00  0.00  0.00  0.00
  WS02006239WS02006238    1.00   0.00  0.00  0.00  0.99  0.00  0.00  0.00  0.10  0.00
  WS02006240WS02006239    1.00   0.00  0.00  0.00  0.88  0.00  0.00  0.12  0.10  0.00
  WS02006242WS02006240    1.00   0.00  0.00  0.00  0.99  0.00  0.01  0.00  0.00  0.00
  WS02006243WS02006242    1.00   0.00  0.00  0.00  0.99  0.00  0.00  0.00  0.59  0.00
  WS02006245WS02006243    1.00   0.00  0.00  0.00  0.91  0.00  0.00  0.09  0.00  0.00
  WS02006247WS02006245    1.00   0.00  0.00  0.00  0.99  0.00  0.00  0.01  0.00  0.00
  WS02006248WS02006247    1.00   0.00  0.00  0.00  0.99  0.00  0.00  0.01  0.50  0.00
  WS02006249WS02006248    1.00   0.00  0.00  0.00  0.72  0.00  0.28  0.00  0.00  0.00
  WS02006251WS02006249    1.00   0.00  0.00  0.00  1.00  0.00  0.00  0.00  0.54  0.00
  WS02006252WS02006251    1.00   0.00  0.20  0.00  0.20  0.00  0.60  0.00  0.00  0.00
  WS02006256WS02006235    1.00   0.00  0.00  0.00  0.98  0.02  0.00  0.00  0.01  0.00
  WSF200WS02003060        1.00   0.00  0.06  0.00  0.28  0.66  0.00  0.00  0.63  0.00
  YS02001580YS02001583    1.00   0.28  0.26  0.00  0.46  0.00  0.00  0.00  0.61  0.00
  YS02001583YS02001586    1.00   0.22  0.28  0.00  0.49  0.00  0.01  0.00  0.62  0.00
  YS02001586YS02001590    1.00   0.12  0.00  0.00  0.71  0.01  0.00  0.16  0.32  0.00
  YS02001590YS02001593    1.00   0.12  0.00  0.00  0.39  0.00  0.49  0.00  0.00  0.00
  YS02001593YS02001596    1.00   0.12  0.00  0.00  0.49  0.00  0.00  0.39  0.04  0.00
  YS02001596YS02001600    1.00   0.12  0.00  0.00  0.51  0.01  0.00  0.36  0.03  0.00
  YS02001600YS02001601    1.00   0.12  0.00  0.00  0.88  0.00  0.00  0.00  0.54  0.00
  YS02001601YS02001602    1.00   0.12  0.00  0.00  0.88  0.00  0.00  0.00  0.00  0.00
  YS02001602YS02001605    1.00   0.12  0.00  0.00  0.88  0.00  0.00  0.00  0.00  0.00
  YS02001605YS02001607    1.00   0.12  0.00  0.00  0.88  0.00  0.00  0.00  0.00  0.00
  YS02001607YS02001610    1.00   0.12  0.00  0.00  0.88  0.00  0.00  0.00  0.00  0.00
  YS02001610YS02001613    1.00   0.12  0.00  0.00  0.88  0.00  0.00  0.00  0.00  0.00
  YS02001613YS02001616    1.00   0.12  0.00  0.00  0.88  0.00  0.00  0.00  0.00  0.00
  YS02001616YS02001619    1.00   0.12  0.00  0.00  0.88  0.00  0.00  0.00  0.00  0.00
  YS02001619YS02001622    1.00   0.12  0.00  0.00  0.88  0.00  0.00  0.00  0.26  0.00
  YS02001622YS02001625    1.00   0.12  0.00  0.00  0.88  0.00  0.00  0.00  0.01  0.00
  YS02001625YS02001629    1.00   0.12  0.01  0.00  0.49  0.00  0.38  0.00  0.00  0.00
  YS02001629YS02163301    1.00   0.12  0.00  0.00  0.88  0.00  0.00  0.00  0.00  0.00
  YS02001633YS02163601    1.00   0.00  0.00  0.00  1.00  0.00  0.00  0.00  0.13  0.00
  YS02001641YS02001644    1.00   0.00  0.00  0.00  1.00  0.00  0.00  0.00  0.00  0.00
  YS02001644YS02001647    1.00   0.00  0.12  0.00  0.88  0.00  0.00  0.00  0.00  0.00
  YS02001647YS02001649    1.00   0.00  0.12  0.00  0.58  0.30  0.00  0.00  0.54  0.00
  YS02001649YS02001757    1.00   0.00  0.00  0.00  0.65  0.35  0.00  0.00  0.41  0.00
  YS02001652YS02001649    1.00   0.00  0.00  0.00  1.00  0.00  0.00  0.00  0.68  0.00
  YS02001655YS02001652    1.00   0.00  0.00  0.00  0.51  0.00  0.00  0.48  0.09  0.00
  YS02001658YS02001655    1.00   0.00  0.12  0.00  0.51  0.37  0.00  0.00  0.68  0.00
  YS02001661YS02001658    1.00   0.12  0.00  0.00  0.33  0.55  0.00  0.00  0.80  0.00
  YS02001664YS02001661    1.00   0.12  0.00  0.00  0.39  0.49  0.00  0.00  0.87  0.00
  YS02001745YS02001748    1.00   0.00  0.00  0.00  0.15  0.01  0.00  0.83  0.10  0.00
  YS02001748YS02001751    1.00   0.00  0.00  0.00  0.64  0.36  0.00  0.00  0.81  0.00
  YS02001751YS02001754    1.00   0.00  0.00  0.00  0.36  0.08  0.00  0.55  0.08  0.00
  YS02001754YS02001757    1.00   0.00  0.00  0.00  1.00  0.00  0.00  0.00  0.73  0.00
  YS02001757CaochengTiaoxuchi    1.00   0.00  0.00  0.00  0.80  0.20  0.00  0.00  0.70  0.00
  YS02001759YS02001757    1.00   0.00  0.00  0.00  1.00  0.00  0.00  0.00  0.61  0.00
  YS02001762YS02001759    1.00   0.00  0.00  0.00  1.00  0.00  0.00  0.00  0.02  0.00
  YS02001765YS02001762    1.00   0.00  0.00  0.00  1.00  0.00  0.00  0.00  0.67  0.00
  YS02001767YS02001765    1.00   0.00  0.00  0.00  1.00  0.00  0.00  0.00  0.00  0.00
  YS02001770YS02001767    1.00   0.00  0.00  0.00  1.00  0.00  0.00  0.00  0.00  0.00
  YS02001774YS02001770    1.00   0.00  0.12  0.00  0.82  0.00  0.06  0.00  0.00  0.00
  YS02001779YS02001774    1.00   0.00  0.00  0.00  1.00  0.00  0.00  0.00  0.71  0.00
  YS02001783YS02001784    1.00   0.00  0.12  0.00  0.88  0.00  0.00  0.00  0.53  0.00
  YS02001784YS02001785    1.00   0.00  0.00  0.00  1.00  0.00  0.00  0.00  0.13  0.00
  YS02001786YS02001788    1.00   0.00  0.00  0.00  0.38  0.62  0.00  0.00  0.00  0.00
  YS02001788YS02001790    1.00   0.00  0.00  0.00  0.13  0.87  0.00  0.00  0.74  0.00
  YS02001790YS02001791    1.00   0.00  0.00  0.00  0.01  0.99  0.00  0.00  0.19  0.00
  YS02001791YS02001793    1.00   0.00  0.00  0.00  0.00  1.00  0.00  0.00  0.00  0.00
  YS02001793JiankangQianchi    1.00   0.00  0.00  0.00  1.00  0.00  0.00  0.00  1.00  0.00
  YS02001882YS02001884    1.00   0.12  0.00  0.00  0.88  0.00  0.00  0.00  0.00  0.00
  YS02001884YS02001887    1.00   0.09  0.02  0.00  0.89  0.00  0.00  0.00  0.00  0.00
  YS02001887YS02001890    1.00   0.00  0.00  0.00  0.93  0.00  0.06  0.00  0.00  0.00
  YS02001890YS02001895    1.00   0.00  0.12  0.00  0.88  0.00  0.00  0.00  0.00  0.00
  YS02001895YS02001898    1.00   0.12  0.00  0.00  0.88  0.00  0.00  0.00  0.00  0.00
  YS02001898YS02001901    1.00   0.12  0.00  0.00  0.88  0.00  0.00  0.00  0.00  0.00
  YS02001901YS02001904    1.00   0.12  0.00  0.00  0.88  0.00  0.00  0.00  0.00  0.00
  YS02001904YS02001907    1.00   0.00  0.12  0.00  0.88  0.00  0.00  0.00  0.00  0.00
  YS02001907YS02006553    1.00   0.00  0.04  0.00  0.96  0.00  0.00  0.00  0.00  0.00
  YS02001910YS02001907    1.00   0.00  0.00  0.00  0.94  0.01  0.00  0.05  0.10  0.00
  YS02001915YS02001910    1.00   0.00  0.00  0.00  0.96  0.04  0.00  0.00  0.11  0.00
  YS02001918YS02001915    1.00   0.00  0.00  0.00  0.95  0.05  0.00  0.00  0.64  0.00
  YS02001920YS02001918    1.00   0.00  0.00  0.00  1.00  0.00  0.00  0.00  0.01  0.00
  YS02001923YS02001920    1.00   0.00  0.00  0.00  1.00  0.00  0.00  0.00  0.94  0.00
  YS02001926YS02001923    1.00   0.00  0.10  0.00  0.00  0.00  0.90  0.00  0.00  0.00
  YS02001929YS02001926    1.00   0.00  0.12  0.00  0.88  0.00  0.00  0.00  0.87  0.00
  YS02006553YS02006556    1.00   0.01  0.00  0.00  0.99  0.00  0.00  0.00  0.03  0.00
  YS02006556YS02006558    1.00   0.00  0.00  0.00  1.00  0.00  0.00  0.00  0.00  0.00
  YS02006558YS02006561    1.00   0.12  0.00  0.00  0.00  0.88  0.00  0.00  0.14  0.00
  YS02006561YS02001783    1.00   0.12  0.00  0.00  0.22  0.66  0.00  0.00  0.61  0.00
  YS02163301YS02001633    1.00   0.00  0.12  0.00  0.88  0.00  0.00  0.00  0.00  0.00
  YS02163601YS02164001    1.00   0.00  0.10  0.00  0.90  0.00  0.00  0.00  0.00  0.00
  YS02164001YS02001641    1.00   0.00  0.10  0.00  0.90  0.00  0.00  0.00  0.05  0.00
  
  
  *************************
  Conduit Surcharge Summary
  *************************
  
  ----------------------------------------------------------------------------
                                                           Hours        Hours 
                         --------- Hours Full --------   Above Full   Capacity
  Conduit                Both Ends  Upstream  Dnstream   Normal Flow   Limited
  ----------------------------------------------------------------------------
  WS02003072WS02003073        0.01      0.01      0.01      1.10         0.01
  WS02004401WS02004402        0.01      0.01      0.01      0.01         0.01
  WS02004402WS02004403        0.01      0.01      0.01      0.01         0.01
  WS02004404WS02004405        0.01      0.01      0.01      3.13         0.01
  WS02004405WS02004406        0.01      0.01      0.01      0.93         0.01
  WS02006109WS02006110        0.98      0.98      1.79      1.02         0.01
  WS02006110WS02006113        0.01      0.01      1.73      0.01         0.01
  WS02006111WS02006112        0.01      0.01      2.19      0.01         0.01
  WS02006112WS02006115        0.01      0.01      0.97      0.01         0.01
  WS02006113WS02006111        0.01      0.01      0.01      0.01         0.01
  WS02006115WS02006116        0.01      0.01      0.01      0.01         0.01
  WS02006116WS02004401        0.01      0.01      0.01      0.02         0.01
  WS02006228WS02006109        1.69      1.81      1.69      2.56         1.69
  WS02006229WS02006228        1.68      1.69      1.68      2.11         1.68
  WS02006230WS02006229        1.94      2.08      1.94      3.29         1.94
  WS02006231WS02006230        0.99      0.99      1.02      3.08         0.01
  WS02006232WS02006231        1.01      1.01      1.80      1.03         0.01
  WS02006234WS02006232        1.67      1.67      1.80      1.02         1.02
  WS02006235WS02006234        1.09      1.09      1.67      2.99         0.01
  WS02006238WS02006235        1.69      1.69      1.81      0.01         0.01
  WS02006239WS02006238        1.70      1.73      1.72      1.81         1.65
  WS02006240WS02006239        1.68      1.69      1.68      1.82         1.60
  WS02006242WS02006240        1.68      1.68      1.77      1.92         0.01
  WS02006243WS02006242        1.71      1.71      1.75      0.01         0.01
  WS02006245WS02006243        1.70      1.71      1.70      0.83         0.75
  WS02006247WS02006245        1.70      1.73      1.70      2.96         1.70
  WS02006248WS02006247        1.70      1.70      1.73      0.01         0.01
  WS02006249WS02006248        1.69      1.69      1.71      2.93         0.01
  WS02006251WS02006249        1.71      1.74      1.71      1.88         1.69
  WS02006252WS02006251        1.95      1.95      2.02      1.95         0.01
  WS02006256WS02006235        3.02      3.04      6.65      1.45         0.01
  YS02001580YS02001583        0.17      0.17      0.59      0.01         0.01
  YS02001583YS02001586        0.20      0.20      1.38      0.01         0.01
  YS02001586YS02001590        1.39      1.39      1.45      0.01         0.01
  YS02001590YS02001593        1.45      1.45      1.47      1.44         0.01
  YS02001593YS02001596        1.46      1.46      1.65      0.01         0.01
  YS02001596YS02001600        1.76      1.76      1.98      0.01         0.01
  YS02001600YS02001601        2.01      2.01      2.17      0.01         0.01
  YS02001601YS02001602        2.10      2.10      2.19      2.01         0.01
  YS02001602YS02001605        2.08      2.08      2.10      2.71         0.01
  YS02001605YS02001607        2.04      2.08      2.04      2.14         2.04
  YS02001607YS02001610        1.42      1.42      1.44      0.01         0.01
  YS02001610YS02001613        1.41      1.41      1.44      0.01         0.01
  YS02001613YS02001616        1.35      1.35      1.41      0.01         0.01
  YS02001616YS02001619        1.23      1.23      1.35      0.01         0.01
  YS02001619YS02001622        1.17      1.23      1.17      1.47         1.16
  YS02001622YS02001625        1.17      1.17      1.51      0.01         0.01
  YS02001625YS02001629        0.76      0.76      1.51      0.01         0.01
  YS02001629YS02163301        1.50      1.50      1.51      1.28         1.10
  YS02001633YS02163601        1.52      1.52      1.55      1.38         1.37
  YS02001641YS02001644        1.42      1.46      1.42      2.20         1.42
  YS02001644YS02001647        0.60      0.60      1.42      0.01         0.01
  YS02001647YS02001649        0.60      0.60      0.80      0.01         0.01
  YS02001649YS02001757        0.80      0.80      0.85      0.01         0.01
  YS02001652YS02001649        0.11      0.11      0.80      0.01         0.01
  YS02001655YS02001652        0.01      0.01      0.02      0.01         0.01
  YS02001754YS02001757        0.01      0.01      0.85      0.01         0.01
  YS02001757CaochengTiaoxuchi        0.85      0.85      1.76      0.01         0.01
  YS02001759YS02001757        0.76      0.76      0.85      0.01         0.01
  YS02001762YS02001759        0.74      0.74      0.76      0.01         0.01
  YS02001765YS02001762        0.23      0.23      0.74      0.01         0.01
  YS02001767YS02001765        0.14      0.14      0.23      0.01         0.01
  YS02001770YS02001767        0.13      0.13      0.14      0.28         0.08
  YS02001774YS02001770        0.06      0.06      0.73      0.01         0.01
  YS02001779YS02001774        0.01      0.01      0.73      0.01         0.01
  YS02001783YS02001784        0.01      0.01      0.01      0.95         0.01
  YS02001784YS02001785        0.01      0.01      0.01      1.89         0.01
  YS02001786YS02001788        0.01      0.01      0.01      1.62         0.01
  YS02001793JiankangQianchi        0.01      0.01      5.98      0.01         0.01
  YS02001890YS02001895        0.01      0.01      0.10      0.01         0.01
  YS02001904YS02001907        0.01      0.01      1.58      0.01         0.01
  YS02001907YS02006553        1.90      1.90      1.94      0.01         0.01
  YS02001910YS02001907        0.11      0.11      1.53      0.01         0.01
  YS02001915YS02001910        0.01      0.01      0.11      0.01         0.01
  YS02006553YS02006556        0.75      0.75      1.57      0.01         0.01
  YS02006556YS02006558        1.28      1.28      1.59      0.01         0.01
  YS02006558YS02006561        0.01      0.66      0.01      1.77         0.01
  YS02163301YS02001633        1.51      1.51      1.54      0.01         0.01
  YS02163601YS02164001        1.46      1.46      1.55      0.15         0.01
  YS02164001YS02001641        1.46      1.46      1.46      1.69         1.45
  
  
  ***************
  Pumping Summary
  ***************
  
  ---------------------------------------------------------------------------------------------------------
                                                  Min       Avg       Max     Total     Power    % Time Off
                        Percent   Number of      Flow      Flow      Flow    Volume     Usage    Pump Curve
  Pump                 Utilized   Start-Ups       LPS       LPS       LPS  10^6 ltr     Kw-hr    Low   High
  ---------------------------------------------------------------------------------------------------------
  CC-R1                   23.36          46      0.00    683.00    683.00     4.595     83.62    0.0   22.9
  CC-R2                   35.32          56      0.00    683.00    683.00     6.947    123.82    0.0   43.7
  CC-S1                   35.50          77      0.00    200.00    200.00     2.045     12.28    0.0    0.0
  CC-S2                   26.43          14      0.00    200.00    200.00     1.522      8.90    0.0    0.0
  JK-R1                    7.88         218      0.00   1000.00   1000.00     2.270     12.88    0.0    0.0
  JK-R2                    5.82         131      0.00   1000.00   1000.00     1.675      9.71    0.0    0.0
  JK-S                    17.37          56      0.00    300.00    300.00     1.501     29.61    0.0    0.0
  

  Analysis begun on:  Wed Aug  9 16:41:19 2023
  Analysis ended on:  Wed Aug  9 16:41:58 2023
  Total elapsed time: 00:00:39