
  OWA STORM WATER MANAGEMENT MODEL - VERSION v5.2.3 (OWA 2023-03-28)
  ------------------------------------------------------------

  WARNING 04: minimum elevation drop used for Conduit WS02004404WS02004405
  WARNING 03: negative offset ignored for Link YS02001904YS02001907
  
  ****************
  Analysis Options
  ****************
  Flow Units ............... LPS
  Process Models:
    Rainfall/Runoff ........ YES
    RDII ................... NO
    Snowmelt ............... NO
    Groundwater ............ NO
    Flow Routing ........... YES
    Ponding Allowed ........ NO
    Water Quality .......... NO
  Infiltration Method ...... HORTON
  Flow Routing Method ...... DYNWAVE
  Surcharge Method ......... EXTRAN
  Starting Date ............ 08/28/2015 08:00:00
  Ending Date .............. 08/28/2015 16:00:00
  Antecedent Dry Days ...... 8.0
  Report Time Step ......... 00:01:00
  Wet Time Step ............ 00:01:00
  Dry Time Step ............ 00:01:00
  Routing Time Step ........ 30.00 sec
  Variable Time Step ....... YES
  Maximum Trials ........... 8
  Number of Threads ........ 1
  Head Tolerance ........... 0.001500 m
  
  
  **************************        Volume         Depth
  Runoff Quantity Continuity     hectare-m            mm
  **************************     ---------       -------
  Total Precipitation ......         2.877        47.498
  Evaporation Loss .........         0.000         0.000
  Infiltration Loss ........         0.233         3.839
  Surface Runoff ...........         2.584        42.664
  Final Storage ............         0.061         1.007
  Continuity Error (%) .....        -0.023
  
  
  **************************        Volume        Volume
  Flow Routing Continuity        hectare-m      10^6 ltr
  **************************     ---------     ---------
  Dry Weather Inflow .......         0.630         6.296
  Wet Weather Inflow .......         2.584        25.845
  Groundwater Inflow .......         0.000         0.000
  RDII Inflow ..............         0.000         0.000
  External Inflow ..........         0.105         1.045
  External Outflow .........         2.676        26.763
  Flooding Loss ............         0.972         9.720
  Evaporation Loss .........         0.000         0.000
  Exfiltration Loss ........         0.000         0.000
  Initial Stored Volume ....         0.303         3.031
  Final Stored Volume ......         0.178         1.780
  Continuity Error (%) .....        -5.650
  
  
  *************************
  Highest Continuity Errors
  *************************
  Node JK-storage (-43.28%)
  Node YS02001884 (4.98%)
  Node YS02001583 (-4.13%)
  Node CC-storage (-3.82%)
  Node HS02004842 (1.97%)
  
  
  ***************************
  Time-Step Critical Elements
  ***************************
  Link WS02006252WS02006251 (60.34%)
  Link WS02006280WS02006229 (15.93%)
  Link YS02001793JiankangQianchi (8.57%)
  Link WS02006238WS02006235 (4.28%)
  Link WS02003066WSF200 (2.03%)
  
  
  ********************************
  Highest Flow Instability Indexes
  ********************************
  Link WS02006113WS02006111 (33)
  Link WS02006111WS02006112 (17)
  Link WS02006252WS02006251 (13)
  Link WS02006238WS02006235 (12)
  Link WS02004404WS02004405 (12)
  
  
  *********************************
  Most Frequent Nonconverging Nodes
  *********************************
  Node CC-1 (8.31%)
  Node CC-2 (8.31%)
  Node JK-1 (8.31%)
  Node JK-2 (8.31%)
  Node WSC (8.31%)
  
  
  *************************
  Routing Time Step Summary
  *************************
  Minimum Time Step           :     0.01 sec
  Average Time Step           :     1.58 sec
  Maximum Time Step           :    30.00 sec
  % of Time in Steady State   :     0.00
  Average Iterations per Step :     2.89
  % of Steps Not Converging   :     8.31
  Time Step Frequencies       :
     30.000 - 13.228 sec      :     0.01 %
     13.228 -  5.833 sec      :     1.51 %
      5.833 -  2.572 sec      :    15.80 %
      2.572 -  1.134 sec      :    23.97 %
      1.134 -  0.500 sec      :    58.71 %
  
  
  ***************************
  Subcatchment Runoff Summary
  ***************************
  
  ------------------------------------------------------------------------------------------------------------------------------
                            Total      Total      Total      Total     Imperv       Perv      Total       Total     Peak  Runoff
                           Precip      Runon       Evap      Infil     Runoff     Runoff     Runoff      Runoff   Runoff   Coeff
  Subcatchment                 mm         mm         mm         mm         mm         mm         mm    10^6 ltr      LPS
  ------------------------------------------------------------------------------------------------------------------------------
  sub0                      47.50       0.00       0.00       0.95      42.92       2.38      45.30        0.04    30.07   0.954
  sub1                      47.50       0.00       0.00       1.63      41.02       3.60      44.62        0.30   204.27   0.939
  sub10                     47.50       0.00       0.00       1.14      42.42       2.66      45.07        0.50   348.93   0.949
  sub11                     47.50       0.00       0.00       1.12      42.43       2.68      45.11        0.52   388.09   0.950
  sub12                     47.50       0.00       0.00       1.83      40.15       4.35      44.50        0.39   311.20   0.937
  sub14                     47.50       0.00       0.00       1.28      41.96       2.99      44.96        0.43   309.32   0.947
  sub15                     47.50       0.00       0.00       5.13      32.28       9.12      41.40        0.71   475.58   0.872
  sub16                     47.50       0.00       0.00       5.28      30.91      10.40      41.32        0.43   322.14   0.870
  sub17                     47.50       0.00       0.00       5.15      31.37      10.05      41.43        0.36   261.48   0.872
  sub2                      47.50       0.00       0.00       7.33      29.02      10.25      39.27        0.37   208.20   0.827
  sub22                     47.50       0.00       0.00       7.79      26.29      12.64      38.93        2.46  1589.12   0.820
  sub23                     47.50       0.00       0.00       6.34      29.06      11.24      40.30        1.92  1319.55   0.848
  sub3                      47.50       0.00       0.00       7.92      28.98       9.65      38.63        0.87   447.44   0.813
  sub4                      47.50       0.00       0.00       1.84      40.86       3.38      44.24        0.92   494.76   0.931
  sub5                      47.50       0.00       0.00       1.00      42.87       2.33      45.20        0.51   352.41   0.952
  sub60                     47.50       0.00       0.00       1.72      40.59       3.98      44.57        0.59   440.14   0.938
  sub61                     47.50       0.00       0.00       2.51      38.29       5.57      43.86        0.80   611.01   0.923
  sub62                     47.50       0.00       0.00       1.15      42.41       2.65      45.06        1.23   854.40   0.949
  sub63                     47.50       0.00       0.00       4.69      32.75       9.09      41.84        0.95   684.76   0.881
  sub64                     47.50       0.00       0.00       2.36      39.16       4.76      43.93        1.06   691.35   0.925
  sub65                     47.50       0.00       0.00       2.04      40.07       4.13      44.20        1.22   772.32   0.931
  sub66                     47.50       0.00       0.00       5.82      32.65       7.95      40.60        1.89  1005.82   0.855
  sub67                     47.50       0.00       0.00       1.10      42.45       2.70      45.15        0.84   661.53   0.951
  sub68                     47.50       0.00       0.00       2.08      39.66       4.57      44.23        1.22   878.59   0.931
  sub69                     47.50       0.00       0.00       1.86      40.26       5.27      45.53        1.69  1027.86   0.959
  sub7                      47.50       0.00       0.00       1.26      41.98       3.01      44.99        0.15   114.91   0.947
  sub70                     47.50       0.00       0.00       6.23      31.18       9.92      41.10        1.19   563.21   0.865
  sub71                     47.50       0.00       0.00       1.18      42.37       2.62      44.99        1.18   747.53   0.947
  sub72                     47.50       0.00       0.00       1.06      42.77       2.27      45.04        0.62   362.50   0.948
  sub8                      47.50       0.00       0.00       1.28      41.97       3.00      44.97        0.29   210.55   0.947
  sub9                      47.50       0.00       0.00       1.28      41.97       3.00      44.96        0.22   157.28   0.947
  
  
  ******************
  Node Depth Summary
  ******************
  
  ---------------------------------------------------------------------------------
                                 Average  Maximum  Maximum  Time of Max    Reported
                                   Depth    Depth      HGL   Occurrence   Max Depth
  Node                 Type       Meters   Meters   Meters  days hr:min      Meters
  ---------------------------------------------------------------------------------
  HS02004478           JUNCTION     0.17     1.58    10.81     0  02:25        1.57
  HS02004479           JUNCTION     0.24     1.69    10.90     0  02:21        1.66
  HS02004480           JUNCTION     0.21     1.67    10.91     0  02:21        1.63
  HS02004770           JUNCTION     0.22     1.42    11.25     0  02:17        1.42
  HS02004777           JUNCTION     0.24     1.48    11.28     0  02:18        1.48
  HS02004785           JUNCTION     0.14     1.49    11.39     0  02:18        1.42
  HS02004788           JUNCTION     0.11     1.42    11.32     0  02:18        1.42
  HS02004792           JUNCTION     0.15     1.60    11.12     0  02:18        1.60
  HS02004799           JUNCTION     0.26     1.76    10.97     0  02:21        1.76
  HS02004802           JUNCTION     0.27     1.77    10.90     0  02:25        1.77
  HS02004807           JUNCTION     0.24     1.92    11.09     0  02:21        1.87
  HS02004817           JUNCTION     0.53     2.42    11.27     0  02:21        2.27
  HS02004824           JUNCTION     0.12     2.01    11.41     0  02:21        1.78
  HS02004830           JUNCTION     0.12     2.03    11.50     0  02:21        1.72
  HS02004837           JUNCTION     0.10     2.04    11.62     0  02:21        1.62
  HS02004842           JUNCTION     0.39     2.22    11.49     0  02:21        1.93
  HS02004848           JUNCTION     0.08     2.07    11.67     0  02:21        1.60
  HS02004852           JUNCTION     0.08     2.12    11.63     0  02:21        2.12
  HS02004856           JUNCTION     0.14     2.07    11.50     0  02:21        2.07
  HS02004862           JUNCTION     0.10     2.00    11.38     0  02:20        2.00
  HS02004870           JUNCTION     0.09     2.10    11.39     0  02:20        2.10
  HS02004876           JUNCTION     0.13     2.26    11.29     0  02:20        2.26
  HS02004881           JUNCTION     0.08     2.10    11.13     0  02:20        1.76
  HS02004901           JUNCTION     0.23     1.42    11.24     0  02:17        1.42
  WS02001211           JUNCTION     0.62     0.81     5.65     0  02:28        0.81
  WS02001212           JUNCTION     0.36     0.57     5.63     0  02:28        0.57
  WS02001213           JUNCTION     0.57     0.86     5.63     0  02:27        0.86
  WS02003059           JUNCTION     0.64     0.93     5.62     0  02:26        0.93
  WS02003060           JUNCTION     0.37     0.68     5.61     0  02:26        0.68
  WS02003066           JUNCTION     0.22     0.45     6.01     0  02:25        0.45
  WS02003067           JUNCTION     0.54     0.89     6.21     0  02:25        0.89
  WS02003069           JUNCTION     0.41     0.77     5.36     0  02:27        0.77
  WS02003072           JUNCTION     0.47     0.81     5.18     0  02:27        0.81
  WS02003073           JUNCTION     0.28     0.51     4.58     0  02:28        0.51
  WS02004138           JUNCTION     0.13     0.14     7.39     0  00:31        0.14
  WS02004139           JUNCTION     0.56     0.74     5.65     0  02:28        0.74
  WS02004401           JUNCTION     0.74     1.84     7.84     0  02:25        1.83
  WS02004402           JUNCTION     0.76     1.78     7.74     0  02:25        1.78
  WS02004403           JUNCTION     0.77     1.70     7.63     0  02:25        1.70
  WS02004404           JUNCTION     0.84     1.71     7.56     0  02:25        1.70
  WS02004405           JUNCTION     0.83     1.67     7.52     0  02:25        1.66
  WS02004406           JUNCTION     0.83     1.55     7.38     0  02:25        1.54
  WS02004407           JUNCTION     0.24     0.91     7.22     0  02:25        0.91
  WS02004409           JUNCTION     0.51     1.38     7.15     0  02:25        1.38
  WS02004410           JUNCTION     0.52     1.29     7.01     0  02:25        1.28
  WS02004411           JUNCTION     0.52     1.20     6.88     0  02:25        1.20
  WS02004412           JUNCTION     0.53     1.10     6.74     0  02:25        1.10
  WS02004413           JUNCTION     0.67     1.14     6.61     0  02:25        1.14
  WS02006109           JUNCTION     0.90     2.64     9.26     0  02:18        2.64
  WS02006110           JUNCTION     0.85     2.38     8.97     0  02:24        2.37
  WS02006111           JUNCTION     0.36     1.71     8.41     0  02:25        1.71
  WS02006112           JUNCTION     0.93     2.68     8.56     0  00:00        2.34
  WS02006113           JUNCTION     0.44     1.80     8.70     0  02:25        1.79
  WS02006115           JUNCTION     0.64     1.93     8.07     0  02:25        1.92
  WS02006116           JUNCTION     0.72     1.92     7.96     0  02:25        1.92
  WS02006228           JUNCTION     0.93     3.03     9.68     0  02:21        3.02
  WS02006229           JUNCTION     0.93     3.22     9.91     0  02:24        3.22
  WS02006230           JUNCTION     0.87     2.65     9.39     0  02:14        2.65
  WS02006231           JUNCTION     0.61     2.19     9.32     0  02:18        2.19
  WS02006232           JUNCTION     0.72     2.18     9.22     0  02:14        2.18
  WS02006234           JUNCTION     0.61     1.96     9.12     0  02:13        1.96
  WS02006235           JUNCTION     0.63     1.96     9.12     0  02:20        1.93
  WS02006238           JUNCTION     0.65     1.97     9.12     0  02:20        1.93
  WS02006239           JUNCTION     0.60     1.83     9.04     0  02:20        1.80
  WS02006240           JUNCTION     0.55     1.65     8.95     0  02:20        1.65
  WS02006242           JUNCTION     0.60     1.55     8.82     0  01:53        1.55
  WS02006243           JUNCTION     0.49     1.48     8.90     0  01:54        1.37
  WS02006245           JUNCTION     0.48     1.29     8.78     0  03:10        1.29
  WS02006247           JUNCTION     0.49     1.25     8.75     0  03:10        1.24
  WS02006248           JUNCTION     0.44     1.10     8.69     0  01:55        1.10
  WS02006249           JUNCTION     0.47     1.09     8.69     0  01:54        1.09
  WS02006251           JUNCTION     0.51     2.21     9.88     0  02:20        2.09
  WS02006252           JUNCTION     0.36     1.50     9.74     0  02:20        1.50
  WS02006253           JUNCTION     0.57     3.52    11.16     0  02:20        2.86
  WS02006256           JUNCTION     0.94     2.35     9.28     0  00:11        2.35
  WS02006280           JUNCTION     0.22     1.74    10.01     0  02:21        1.72
  WS02006284           JUNCTION     0.49     1.94    10.34     0  02:21        1.94
  WS02006287           JUNCTION     0.23     1.72    10.68     0  02:25        1.72
  WSF200               JUNCTION     0.22     0.52     5.75     0  02:25        0.52
  YS02001580           JUNCTION     0.05     1.05     9.59     0  02:17        0.78
  YS02001583           JUNCTION     0.08     1.01     9.51     0  02:17        0.82
  YS02001586           JUNCTION     0.15     1.13     9.30     0  02:17        1.13
  YS02001590           JUNCTION     0.24     1.38     9.24     0  02:17        1.37
  YS02001593           JUNCTION     0.16     1.32     9.18     0  02:21        1.32
  YS02001596           JUNCTION     0.22     1.66     9.08     0  02:17        1.65
  YS02001600           JUNCTION     0.27     1.87     9.00     0  02:21        1.87
  YS02001601           JUNCTION     0.46     2.06     8.90     0  02:16        2.06
  YS02001602           JUNCTION     0.39     1.87     8.77     0  02:16        1.87
  YS02001605           JUNCTION     0.36     1.78     8.68     0  02:17        1.78
  YS02001607           JUNCTION     0.36     1.65     8.50     0  02:35        1.65
  YS02001610           JUNCTION     0.41     1.68     8.48     0  02:17        1.68
  YS02001613           JUNCTION     0.36     1.68     8.52     0  02:17        1.66
  YS02001616           JUNCTION     0.30     1.61     8.52     0  02:17        1.60
  YS02001619           JUNCTION     0.27     1.59     8.52     0  02:25        1.59
  YS02001622           JUNCTION     0.26     1.56     8.47     0  02:23        1.56
  YS02001625           JUNCTION     0.52     1.78     8.38     0  02:20        1.78
  YS02001629           JUNCTION     0.37     1.85     8.40     0  02:17        1.85
  YS02001633           JUNCTION     0.45     2.08     8.53     0  02:21        2.08
  YS02001641           JUNCTION     0.43     1.95     8.39     0  02:23        1.94
  YS02001644           JUNCTION     0.43     1.92     8.35     0  02:23        1.92
  YS02001647           JUNCTION     0.21     1.74     8.35     0  02:24        1.69
  YS02001649           JUNCTION     0.26     1.95     8.34     0  02:24        1.88
  YS02001652           JUNCTION     0.15     1.83     8.43     0  02:24        1.69
  YS02001655           JUNCTION     0.10     1.71     8.56     0  02:23        1.49
  YS02001658           JUNCTION     0.07     1.64     8.78     0  02:23        1.25
  YS02001661           JUNCTION     0.12     1.30     8.71     0  02:24        1.02
  YS02001664           JUNCTION     0.04     0.55     8.47     0  02:24        0.48
  YS02001745           JUNCTION     0.04     0.74     8.25     0  02:24        0.67
  YS02001748           JUNCTION     0.06     1.54     8.61     0  02:23        1.09
  YS02001751           JUNCTION     0.07     1.56     8.43     0  02:23        1.27
  YS02001754           JUNCTION     0.13     1.67     8.28     0  02:23        1.53
  YS02001757           JUNCTION     0.30     1.93     8.19     0  02:23        1.87
  YS02001759           JUNCTION     0.23     1.92     8.28     0  02:24        1.86
  YS02001762           JUNCTION     0.22     1.92     8.32     0  02:23        1.85
  YS02001765           JUNCTION     0.20     1.90     8.35     0  02:23        1.82
  YS02001767           JUNCTION     0.20     1.90     8.39     0  02:23        1.82
  YS02001770           JUNCTION     0.21     1.95     8.44     0  02:23        1.88
  YS02001774           JUNCTION     0.27     2.00     8.42     0  02:23        1.96
  YS02001779           JUNCTION     0.11     1.68     8.37     0  02:21        1.68
  YS02001783           JUNCTION     0.20     1.31     7.45     0  02:20        1.23
  YS02001784           JUNCTION     0.22     1.17     7.24     0  02:21        1.12
  YS02001786           JUNCTION     0.18     0.93     6.96     0  02:21        0.93
  YS02001788           JUNCTION     0.13     0.62     6.60     0  02:24        0.62
  YS02001790           JUNCTION     0.16     0.73     6.37     0  02:26        0.72
  YS02001791           JUNCTION     0.10     0.44     5.91     0  02:27        0.43
  YS02001793           JUNCTION     0.06     0.24     5.08     0  02:21        0.23
  YS02001882           JUNCTION     0.25     1.83     8.55     0  02:21        1.83
  YS02001884           JUNCTION     0.34     1.93     8.55     0  02:21        1.93
  YS02001887           JUNCTION     0.41     2.00     8.54     0  02:21        2.00
  YS02001890           JUNCTION     0.44     1.81     8.32     0  02:21        1.81
  YS02001895           JUNCTION     0.22     1.70     8.45     0  02:21        1.70
  YS02001898           JUNCTION     0.23     1.66     8.40     0  02:21        1.66
  YS02001901           JUNCTION     0.34     1.69     8.30     0  02:21        1.67
  YS02001904           JUNCTION     0.32     1.64     8.27     0  02:21        1.63
  YS02001907           JUNCTION     0.63     1.96     8.25     0  02:21        1.96
  YS02001910           JUNCTION     0.43     1.97     8.48     0  02:21        1.83
  YS02001915           JUNCTION     0.25     1.92     8.64     0  02:21        1.69
  YS02001918           JUNCTION     0.12     1.81     8.88     0  02:21        1.39
  YS02001920           JUNCTION     0.20     2.09     9.10     0  02:21        1.50
  YS02001923           JUNCTION     0.09     2.00     9.26     0  02:21        1.32
  YS02001926           JUNCTION     0.13     1.90     9.35     0  02:21        1.18
  YS02001929           JUNCTION     0.07     1.78     9.47     0  02:21        1.01
  YS02006553           JUNCTION     0.63     1.99     8.27     0  02:21        1.97
  YS02006556           JUNCTION     0.61     1.98     8.29     0  02:20        1.95
  YS02006558           JUNCTION     0.65     2.03     8.29     0  02:20        2.00
  YS02006561           JUNCTION     0.12     0.99     7.65     0  02:20        0.90
  YS02163301           JUNCTION     0.39     2.01     8.52     0  02:21        2.01
  YS02163601           JUNCTION     0.49     2.06     8.45     0  02:21        2.06
  YS02164001           JUNCTION     0.42     1.94     8.40     0  02:23        1.93
  YSB1154              JUNCTION     0.37     1.93    10.99     0  02:18        1.89
  YSB1171              JUNCTION     0.51     1.95    10.85     0  02:18        1.95
  YSB1174              JUNCTION     0.33     1.80    10.91     0  02:25        1.80
  YSB6556              JUNCTION     0.27     1.78    10.95     0  02:18        1.73
  CC-1                 OUTFALL      0.00     0.00     0.00     0  00:00        0.00
  CC-2                 OUTFALL      0.00     0.00     0.00     0  00:00        0.00
  JK-1                 OUTFALL      0.00     0.00     0.00     0  00:00        0.00
  JK-2                 OUTFALL      0.00     0.00     0.00     0  00:00        0.00
  WSC                  OUTFALL      0.28     0.51     1.18     0  02:28        0.51
  CC-storage           STORAGE      0.56     1.51     7.01     0  03:10        1.51
  JK-storage           STORAGE      0.12     3.00     3.80     0  00:05        3.00
  XR-storage           STORAGE      7.86     9.26     7.26     0  08:00        9.26
  
  
  *******************
  Node Inflow Summary
  *******************
  
  -------------------------------------------------------------------------------------------------
                                  Maximum  Maximum                  Lateral       Total        Flow
                                  Lateral    Total  Time of Max      Inflow      Inflow     Balance
                                   Inflow   Inflow   Occurrence      Volume      Volume       Error
  Node                 Type           LPS      LPS  days hr:min    10^6 ltr    10^6 ltr     Percent
  -------------------------------------------------------------------------------------------------
  HS02004478           JUNCTION      0.00  2293.81     0  02:25           0        6.94      -0.012
  HS02004479           JUNCTION      0.00   425.75     0  02:21           0       0.673       0.110
  HS02004480           JUNCTION      0.00  2094.00     0  02:19           0        5.22       0.053
  HS02004770           JUNCTION   1319.55  1319.55     0  02:25        1.92        2.13       0.131
  HS02004777           JUNCTION      0.03   751.80     0  02:18    0.000864        1.56       0.333
  HS02004785           JUNCTION      0.15   758.44     0  02:18     0.00432        1.56       0.024
  HS02004788           JUNCTION    477.25   847.29     0  02:18        0.76        2.32       0.007
  HS02004792           JUNCTION   1589.40  2363.73     0  02:25        2.47        4.78       0.004
  HS02004799           JUNCTION    309.32  1736.17     0  02:19       0.428        4.61       0.054
  HS02004802           JUNCTION      0.00  1089.71     0  02:25           0        1.78       0.223
  HS02004807           JUNCTION    388.09  1089.77     0  02:25       0.524        1.82       0.225
  HS02004817           JUNCTION      0.60   715.53     0  02:26      0.0173        1.36       1.274
  HS02004824           JUNCTION    494.81   714.67     0  02:26       0.924        1.51       0.044
  HS02004830           JUNCTION      0.15   620.21     0  02:19     0.00432        0.75       0.174
  HS02004837           JUNCTION    355.28   812.09     0  02:18        0.68        1.04       0.075
  HS02004842           JUNCTION      0.00   818.56     0  02:19           0       0.656       2.010
  HS02004848           JUNCTION    447.44  1069.97     0  02:21        0.87        1.37      -0.027
  HS02004852           JUNCTION      0.00  1032.80     0  02:20           0        1.24      -0.003
  HS02004856           JUNCTION    157.28  1079.01     0  02:20       0.216        1.45       0.098
  HS02004862           JUNCTION    208.40  1193.81     0  02:20       0.372        1.82      -0.015
  HS02004870           JUNCTION    210.55  1309.34     0  02:20       0.287        2.11      -0.028
  HS02004876           JUNCTION    204.27  1358.03     0  02:25       0.297        2.41       0.032
  HS02004881           JUNCTION    114.91  1472.79     0  02:25       0.152        2.56       0.005
  HS02004901           JUNCTION    322.14   568.66     0  02:25       0.433       0.637       0.260
  WS02001211           JUNCTION      7.35   205.83     0  02:55       0.212        5.44       0.612
  WS02001212           JUNCTION      0.00   213.78     0  02:54           0        5.41       0.290
  WS02001213           JUNCTION      0.00   219.92     0  02:55           0        5.39       0.332
  WS02003059           JUNCTION      0.00   225.90     0  02:55           0        5.38       0.595
  WS02003060           JUNCTION     16.53  1491.63     0  02:26       0.476        13.7       0.108
  WS02003066           JUNCTION      0.00  1291.32     0  02:25           0        7.89       0.019
  WS02003067           JUNCTION      0.00  1290.58     0  02:25           0         7.9       0.054
  WS02003069           JUNCTION      0.32  1491.90     0  02:26     0.00922        13.7       0.111
  WS02003072           JUNCTION      0.00  1491.69     0  02:27           0        13.7       0.152
  WS02003073           JUNCTION      1.82  1493.82     0  02:27      0.0524        13.7       0.157
  WS02004138           JUNCTION      0.00   190.00     0  00:29           0        5.25       0.053
  WS02004139           JUNCTION      0.32   190.32     0  00:31     0.00924        5.26       0.508
  WS02004401           JUNCTION      0.00  1291.65     0  02:25           0        8.01       0.142
  WS02004402           JUNCTION      0.00  1291.94     0  02:25           0           8       0.139
  WS02004403           JUNCTION      0.00  1291.96     0  02:25           0        7.99       0.138
  WS02004404           JUNCTION      0.16  1292.10     0  02:25     0.00467        7.98       0.111
  WS02004405           JUNCTION      0.04  1292.72     0  02:25      0.0011        7.98       0.160
  WS02004406           JUNCTION      0.00  1292.83     0  02:25           0        7.96       0.271
  WS02004407           JUNCTION      0.00  1293.00     0  02:25           0        7.94       0.017
  WS02004409           JUNCTION      0.00  1290.38     0  02:25           0        7.93       0.042
  WS02004410           JUNCTION      0.00  1290.56     0  02:25           0        7.93       0.060
  WS02004411           JUNCTION      0.00  1290.56     0  02:25           0        7.93       0.074
  WS02004412           JUNCTION      0.00  1290.41     0  02:25           0        7.92       0.101
  WS02004413           JUNCTION      0.00  1290.56     0  02:25           0        7.91       0.177
  WS02006109           JUNCTION      1.23  1308.01     0  00:00      0.0354         7.8       0.148
  WS02006110           JUNCTION      0.00  1123.59     0  02:36           0        7.61      -0.463
  WS02006111           JUNCTION      0.00  1176.04     0  00:00           0        7.64      -0.491
  WS02006112           JUNCTION    261.48  2307.30     0  00:00       0.355        8.03      -0.001
  WS02006113           JUNCTION      0.00  1123.27     0  02:36           0         7.6      -0.595
  WS02006115           JUNCTION      0.00  2152.75     0  00:00           0        8.01       0.058
  WS02006116           JUNCTION      0.00  1291.54     0  02:24           0        8.01       0.035
  WS02006228           JUNCTION      0.00  1282.71     0  02:25           0        7.74       0.083
  WS02006229           JUNCTION      0.00  2293.64     0  02:25           0        9.41       0.110
  WS02006230           JUNCTION     10.28  1020.94     0  02:25       0.296        4.17       0.126
  WS02006231           JUNCTION      0.00   453.29     0  02:35           0        3.23      -0.149
  WS02006232           JUNCTION      0.00   453.34     0  02:22           0        3.23       0.136
  WS02006234           JUNCTION      0.00   453.09     0  02:18           0        3.22      -0.054
  WS02006235           JUNCTION      0.00   415.30     0  02:35           0         3.2       0.096
  WS02006238           JUNCTION      0.00   415.67     0  02:31           0        2.75      -0.086
  WS02006239           JUNCTION      0.00   415.06     0  02:31           0        2.74      -0.197
  WS02006240           JUNCTION      0.00   414.89     0  02:31           0        2.74       0.010
  WS02006242           JUNCTION      0.00   415.00     0  02:35           0        2.74       0.053
  WS02006243           JUNCTION      0.00   307.48     0  03:08           0        2.46      -0.111
  WS02006245           JUNCTION      0.00   307.55     0  03:08           0        2.47       0.333
  WS02006247           JUNCTION      0.00   307.65     0  03:08           0        2.47       0.062
  WS02006248           JUNCTION      0.00   339.27     0  02:18           0        2.66      -0.083
  WS02006249           JUNCTION      0.00  1340.35     0  02:25           0        4.61       0.154
  WS02006251           JUNCTION      0.08  1503.84     0  02:25     0.00222        4.67       0.011
  WS02006252           JUNCTION      0.00   559.75     0  02:25           0        2.19      -0.408
  WS02006253           JUNCTION     30.07  1503.18     0  02:25      0.0367        2.62       0.010
  WS02006256           JUNCTION      0.00   300.00     0  01:40           0        1.07      -0.069
  WS02006280           JUNCTION      0.00  2292.75     0  02:25           0        6.93       0.009
  WS02006284           JUNCTION      0.10  2292.40     0  02:25     0.00275        6.93       0.004
  WS02006287           JUNCTION      0.00  2293.43     0  02:25           0        6.93       0.012
  WSF200               JUNCTION      0.00  1291.50     0  02:25           0        7.89       0.008
  YS02001580           JUNCTION      0.00   112.99     0  02:17           0     0.00414      -0.901
  YS02001583           JUNCTION      0.00   151.71     0  02:17           0      0.0152      -3.969
  YS02001586           JUNCTION    563.21   563.26     0  02:26        1.19         1.2       0.102
  YS02001590           JUNCTION      0.00   317.97     0  02:35           0        1.05      -0.039
  YS02001593           JUNCTION      0.00   318.07     0  02:35           0        1.05       0.017
  YS02001596           JUNCTION      0.00   317.92     0  02:30           0        1.05      -0.001
  YS02001600           JUNCTION      0.00   318.02     0  02:29           0        1.05       0.021
  YS02001601           JUNCTION   1027.86  1345.44     0  02:26        1.69        2.73       0.039
  YS02001602           JUNCTION      0.00   507.72     0  02:43           0        1.92       0.029
  YS02001605           JUNCTION      0.00   507.97     0  02:43           0        1.86       0.040
  YS02001607           JUNCTION      0.00   508.04     0  02:43           0        1.86       0.107
  YS02001610           JUNCTION      0.00   510.61     0  02:16           0         1.9       0.129
  YS02001613           JUNCTION      0.00   512.69     0  02:16           0        1.65       0.102
  YS02001616           JUNCTION      0.00   513.06     0  02:16           0        1.65       0.030
  YS02001619           JUNCTION   1005.82  1005.82     0  02:26        1.89         3.5      -0.001
  YS02001622           JUNCTION      0.00   931.39     0  02:20           0        3.45       0.004
  YS02001625           JUNCTION      0.00  1077.47     0  02:27           0        3.49       0.261
  YS02001629           JUNCTION      0.00   931.00     0  02:20           0        3.07       0.021
  YS02001633           JUNCTION    772.52  1392.71     0  02:20        1.22        4.24       0.084
  YS02001641           JUNCTION      0.00  1391.52     0  02:20           0        4.19       0.067
  YS02001644           JUNCTION    691.39  1818.47     0  02:21        1.06        5.24       0.066
  YS02001647           JUNCTION      0.00  1820.96     0  02:21           0        5.17       0.006
  YS02001649           JUNCTION      0.00  2079.81     0  02:20           0        6.13       0.006
  YS02001652           JUNCTION      0.00   790.90     0  02:25           0       0.954      -0.090
  YS02001655           JUNCTION      0.15   790.02     0  02:25     0.00443       0.955       0.074
  YS02001658           JUNCTION      0.00   788.82     0  02:25           0        0.95      -0.081
  YS02001661           JUNCTION      0.00   820.96     0  02:25           0        0.95       0.017
  YS02001664           JUNCTION    684.76   684.76     0  02:25        0.95        0.95      -0.005
  YS02001745           JUNCTION    440.14   440.14     0  02:25       0.586       0.586       0.172
  YS02001748           JUNCTION      0.04   549.47     0  02:23      0.0013       0.586      -0.223
  YS02001751           JUNCTION      0.01   477.10     0  02:24    0.000317        0.59       0.055
  YS02001754           JUNCTION      0.26   477.91     0  02:24     0.00749       0.606      -0.149
  YS02001757           JUNCTION      0.00  3465.13     0  02:24           0        8.78       0.037
  YS02001759           JUNCTION    611.05  1363.88     0  02:26       0.806        2.05      -0.001
  YS02001762           JUNCTION      0.00   811.96     0  02:26           0        1.25       0.007
  YS02001765           JUNCTION      0.00   811.04     0  02:26           0        1.24       0.008
  YS02001767           JUNCTION      0.54   810.24     0  02:26      0.0154        1.24       0.013
  YS02001770           JUNCTION    854.55   854.55     0  02:25        1.24        1.29       0.002
  YS02001774           JUNCTION      0.00   218.20     0  02:21           0      0.0803       1.483
  YS02001779           JUNCTION      0.01   216.79     0  02:21    0.000144       0.032      -1.422
  YS02001783           JUNCTION      0.00  1160.65     0  02:24           0        3.24       0.008
  YS02001784           JUNCTION      1.06  1161.89     0  02:24      0.0305        3.27       0.016
  YS02001786           JUNCTION      0.06  1161.57     0  02:23     0.00162        3.28       0.020
  YS02001788           JUNCTION      0.07  1161.57     0  02:23     0.00204        3.28       0.009
  YS02001790           JUNCTION      0.15  1175.79     0  02:24     0.00446        3.28       0.018
  YS02001791           JUNCTION      0.00  1285.58     0  02:26           0        3.28      -0.017
  YS02001793           JUNCTION      0.00  1244.73     0  02:22           0        3.28       0.001
  YS02001882           JUNCTION      0.00    38.25     0  02:18           0      0.0133       4.596
  YS02001884           JUNCTION      0.00    74.73     0  02:18           0      0.0488       5.244
  YS02001887           JUNCTION    661.98   662.65     0  02:25       0.853       0.886       0.497
  YS02001890           JUNCTION      0.00   664.05     0  02:25           0       0.845       0.600
  YS02001895           JUNCTION      0.00   516.20     0  02:27           0       0.811       0.167
  YS02001898           JUNCTION      0.00   516.41     0  02:27           0        0.81       0.056
  YS02001901           JUNCTION      0.00   516.50     0  02:27           0       0.812       0.398
  YS02001904           JUNCTION      0.00   516.22     0  02:27           0       0.816       0.349
  YS02001907           JUNCTION      0.00  1681.40     0  02:25           0        2.69       0.668
  YS02001910           JUNCTION      0.00  1168.13     0  02:25           0        1.88       0.383
  YS02001915           JUNCTION    747.55  1167.30     0  02:25        1.18        1.91       0.086
  YS02001918           JUNCTION      0.00   440.64     0  02:22           0       0.763       0.036
  YS02001920           JUNCTION      2.87   440.09     0  02:22      0.0827       0.747       0.153
  YS02001923           JUNCTION      0.04   407.42     0  02:25     0.00109       0.649      -0.027
  YS02001926           JUNCTION      0.05   404.80     0  02:21      0.0015       0.629       0.043
  YS02001929           JUNCTION    362.50   362.50     0  02:26       0.619        0.62      -0.082
  YS02006553           JUNCTION      0.00   799.51     0  02:36           0        2.05       0.590
  YS02006556           JUNCTION      0.00   799.40     0  02:36           0        2.05       0.404
  YS02006558           JUNCTION    879.47  1161.83     0  02:20        1.24        3.27       0.110
  YS02006561           JUNCTION      0.00  1161.90     0  02:20           0        3.24      -0.004
  YS02163301           JUNCTION      0.00   932.45     0  02:38           0        3.06       0.052
  YS02163601           JUNCTION      0.11  1392.45     0  02:20     0.00317        4.19       0.119
  YS02164001           JUNCTION      0.00  1392.31     0  02:20           0        4.19       0.057
  YSB1154              JUNCTION    352.41   352.41     0  02:25       0.512       0.513       0.290
  YSB1171              JUNCTION      0.00   759.93     0  02:25           0       0.928       0.684
  YSB1174              JUNCTION    311.20   311.20     0  02:25       0.389        0.39       0.328
  YSB6556              JUNCTION      0.00   352.67     0  02:25           0       0.514       0.236
  CC-1                 OUTFALL       0.00   683.00     0  02:01           0        3.18       0.000
  CC-2                 OUTFALL       0.00   683.00     0  00:20           0        6.08       0.000
  JK-1                 OUTFALL       0.00  1000.00     0  00:05           0        1.95       0.000
  JK-2                 OUTFALL       0.00  1000.00     0  02:20           0        1.85       0.000
  WSC                  OUTFALL       0.00  1494.56     0  02:28           0        13.7       0.000
  CC-storage           STORAGE       0.00  3465.16     0  02:25           0          11      -3.682
  JK-storage           STORAGE       0.00  1280.41     0  02:22           0        3.43     -30.205
  XR-storage           STORAGE     200.00   200.00     0  00:00        5.76        6.36       0.001
  
  
  **********************
  Node Surcharge Summary
  **********************
  
  Surcharging occurs when water rises above the top of the highest conduit.
  ---------------------------------------------------------------------
                                               Max. Height   Min. Depth
                                   Hours       Above Crown    Below Rim
  Node                 Type      Surcharged         Meters       Meters
  ---------------------------------------------------------------------
  HS02004478           JUNCTION        0.33          0.659        0.281
  HS02004479           JUNCTION        0.45          0.891        0.159
  HS02004480           JUNCTION        0.48          0.956        0.144
  HS02004770           JUNCTION        0.40          0.720        0.000
  HS02004777           JUNCTION        0.40          0.780        0.000
  HS02004785           JUNCTION        0.36          0.790        0.000
  HS02004788           JUNCTION        0.35          0.720        0.000
  HS02004792           JUNCTION        0.45          0.900        0.000
  HS02004799           JUNCTION        0.56          1.060        0.000
  HS02004802           JUNCTION        0.49          1.064        0.146
  HS02004807           JUNCTION        0.47          1.220        0.000
  HS02004817           JUNCTION        0.95          1.719        0.021
  HS02004824           JUNCTION        0.35          1.310        0.000
  HS02004830           JUNCTION        0.33          1.330        0.000
  HS02004837           JUNCTION        0.29          1.340        0.000
  HS02004842           JUNCTION        0.41          1.520        0.000
  HS02004848           JUNCTION        0.25          1.370        0.000
  HS02004852           JUNCTION        0.28          1.420        0.000
  HS02004856           JUNCTION        0.26          1.300        0.000
  HS02004862           JUNCTION        0.30          1.300        0.000
  HS02004870           JUNCTION        0.31          1.400        0.000
  HS02004876           JUNCTION        0.35          1.560        0.000
  HS02004881           JUNCTION        0.34          1.401        0.049
  HS02004901           JUNCTION        0.40          0.720        0.000
  WS02004401           JUNCTION        1.37          0.836        0.824
  WS02004402           JUNCTION        1.39          0.776        0.964
  WS02004403           JUNCTION        1.39          0.703        1.327
  WS02004404           JUNCTION        1.48          0.712        2.068
  WS02004405           JUNCTION        1.46          0.669        2.131
  WS02004406           JUNCTION        1.44          0.553        1.897
  WS02004409           JUNCTION        0.79          0.376        1.984
  WS02004410           JUNCTION        0.73          0.285        2.255
  WS02004411           JUNCTION        0.66          0.198        2.332
  WS02004412           JUNCTION        0.59          0.099        2.211
  WS02004413           JUNCTION        1.11          0.141        2.059
  WS02006109           JUNCTION        1.75          1.820        0.000
  WS02006110           JUNCTION        1.62          1.473        0.377
  WS02006111           JUNCTION        1.07          0.896        0.974
  WS02006112           JUNCTION        1.64          1.680        0.000
  WS02006113           JUNCTION        1.11          1.004        0.926
  WS02006115           JUNCTION        1.23          0.920        1.330
  WS02006116           JUNCTION        1.28          0.862        1.428
  WS02006228           JUNCTION        1.74          2.198        0.002
  WS02006229           JUNCTION        0.70          1.040        0.030
  WS02006230           JUNCTION        1.47          1.570        0.000
  WS02006231           JUNCTION        1.52          1.483        0.047
  WS02006232           JUNCTION        1.60          1.480        0.000
  WS02006234           JUNCTION        1.53          1.240        0.000
  WS02006235           JUNCTION        1.55          1.250        0.040
  WS02006238           JUNCTION        1.56          1.252        0.178
  WS02006239           JUNCTION        1.53          1.087        0.203
  WS02006240           JUNCTION        1.53          0.942        0.448
  WS02006242           JUNCTION        1.54          0.820        0.000
  WS02006243           JUNCTION        1.50          0.770        0.000
  WS02006245           JUNCTION        1.47          0.583        0.267
  WS02006247           JUNCTION        1.47          0.537        0.223
  WS02006248           JUNCTION        1.41          0.380        0.000
  WS02006249           JUNCTION        1.43          0.390        0.000
  WS02006251           JUNCTION        1.16          1.180        0.000
  WS02006252           JUNCTION        1.31          1.100        0.000
  WS02006253           JUNCTION        1.21          2.480        0.000
  WS02006256           JUNCTION        5.07          2.050        0.000
  WS02006280           JUNCTION        0.58          0.690        0.090
  WS02006284           JUNCTION        0.51          0.661        0.139
  WS02006287           JUNCTION        0.42          0.724        0.166
  YS02001580           JUNCTION        0.42          0.450        0.000
  YS02001583           JUNCTION        0.42          0.373        0.127
  YS02001586           JUNCTION        0.51          0.510        0.000
  YS02001590           JUNCTION        0.58          0.732        0.018
  YS02001593           JUNCTION        0.58          0.697        0.143
  YS02001596           JUNCTION        0.68          0.932        0.138
  YS02001600           JUNCTION        0.81          1.190        0.000
  YS02001601           JUNCTION        1.13          1.440        0.000
  YS02001602           JUNCTION        1.03          1.270        0.000
  YS02001605           JUNCTION        0.98          1.180        0.000
  YS02001607           JUNCTION        0.52          0.653        0.027
  YS02001610           JUNCTION        0.54          0.680        0.000
  YS02001613           JUNCTION        0.51          0.684        0.016
  YS02001616           JUNCTION        0.47          0.610        0.000
  YS02001619           JUNCTION        0.46          0.589        0.021
  YS02001622           JUNCTION        0.46          0.562        0.058
  YS02001625           JUNCTION        0.63          0.780        0.000
  YS02001629           JUNCTION        0.39          0.470        0.000
  YS02001633           JUNCTION        0.64          1.060        0.000
  YS02001641           JUNCTION        0.53          0.953        0.147
  YS02001644           JUNCTION        0.48          0.920        0.000
  YS02001647           JUNCTION        0.27          0.737        0.163
  YS02001649           JUNCTION        0.31          0.952        0.098
  YS02001652           JUNCTION        0.21          0.805        0.325
  YS02001655           JUNCTION        0.14          0.709        0.491
  YS02001658           JUNCTION        0.08          0.638        0.662
  YS02001661           JUNCTION        0.01          0.231        1.159
  YS02001748           JUNCTION        0.02          0.455        0.735
  YS02001751           JUNCTION        0.10          0.556        0.644
  YS02001754           JUNCTION        0.14          0.621        0.529
  YS02001757           JUNCTION        0.31          0.932        0.278
  YS02001759           JUNCTION        0.25          0.921        0.289
  YS02001762           JUNCTION        0.24          0.918        0.232
  YS02001765           JUNCTION        0.22          0.902        0.198
  YS02001767           JUNCTION        0.21          0.901        0.129
  YS02001770           JUNCTION        0.20          0.918        0.002
  YS02001774           JUNCTION        0.24          0.997        0.053
  YS02001779           JUNCTION        0.16          0.680        0.000
  YS02001783           JUNCTION        0.40          0.513        1.087
  YS02001784           JUNCTION        0.38          0.374        1.116
  YS02001786           JUNCTION        0.28          0.133        1.297
  YS02001882           JUNCTION        0.35          0.830        0.000
  YS02001884           JUNCTION        0.36          0.870        0.000
  YS02001887           JUNCTION        0.39          0.950        0.000
  YS02001890           JUNCTION        0.40          0.760        0.000
  YS02001895           JUNCTION        0.34          0.702        0.048
  YS02001898           JUNCTION        0.33          0.634        0.106
  YS02001901           JUNCTION        0.38          0.687        0.183
  YS02001904           JUNCTION        0.37          0.642        0.208
  YS02001907           JUNCTION        0.60          0.950        0.000
  YS02001910           JUNCTION        0.42          0.971        0.129
  YS02001915           JUNCTION        0.35          0.919        0.081
  YS02001918           JUNCTION        0.27          0.810        0.000
  YS02001920           JUNCTION        0.28          1.094        0.046
  YS02001923           JUNCTION        0.02          0.790        0.030
  YS02001926           JUNCTION        0.03          0.900        0.000
  YS02001929           JUNCTION        0.01          0.780        0.000
  YS02006553           JUNCTION        0.61          0.988        0.202
  YS02006556           JUNCTION        0.51          0.941        0.409
  YS02006558           JUNCTION        0.50          0.925        0.475
  YS02006561           JUNCTION        0.24          0.185        0.965
  YS02163301           JUNCTION        0.62          1.007        0.023
  YS02163601           JUNCTION        0.67          1.057        0.023
  YS02164001           JUNCTION        0.55          0.944        0.156
  YSB1154              JUNCTION        0.65          1.232        0.168
  YSB1171              JUNCTION        0.66          1.100        0.000
  YSB1174              JUNCTION        0.60          1.096        0.154
  YSB6556              JUNCTION        0.54          1.083        0.017
  
  
  *********************
  Node Flooding Summary
  *********************
  
  Flooding refers to all water that overflows a node, whether it ponds or not.
  --------------------------------------------------------------------------
                                                             Total   Maximum
                                 Maximum   Time of Max       Flood    Ponded
                        Hours       Rate    Occurrence      Volume     Depth
  Node                 Flooded       LPS   days hr:min    10^6 ltr    Meters
  --------------------------------------------------------------------------
  HS02004770              0.26    777.88      0  02:25       0.367     0.000
  HS02004777              0.01     41.27      0  02:18       0.000     0.000
  HS02004785              0.01     47.33      0  02:18       0.000     0.000
  HS02004788              0.01    232.29      0  02:18       0.001     0.000
  HS02004792              0.25   1220.81      0  02:25       0.600     0.000
  HS02004799              0.12    170.02      0  02:25       0.034     0.000
  HS02004807              0.01     11.45      0  02:21       0.000     0.000
  HS02004830              0.01     13.38      0  02:21       0.000     0.000
  HS02004837              0.01     40.69      0  02:21       0.000     0.000
  HS02004842              0.01    177.38      0  02:21       0.001     0.000
  HS02004848              0.01    313.23      0  02:21       0.001     0.000
  HS02004852              0.01    180.41      0  02:21       0.000     0.000
  HS02004856              0.01    310.36      0  02:21       0.001     0.000
  HS02004862              0.01    391.73      0  02:20       0.001     0.000
  HS02004870              0.01    341.58      0  02:20       0.001     0.000
  HS02004876              0.01     76.57      0  02:20       0.000     0.000
  HS02004901              0.31    568.57      0  02:25       0.426     0.000
  WS02006109              0.29    254.53      0  02:25       0.153     0.000
  WS02006112              0.01   1153.65      0  00:00       0.035     0.000
  WS02006230              0.51    568.07      0  02:25       0.659     0.000
  WS02006232              0.13      0.59      0  02:34       0.000     0.000
  WS02006234              0.56    128.43      0  02:35       0.193     0.000
  WS02006242              0.65    137.25      0  02:30       0.282     0.000
  WS02006243              0.01     49.17      0  01:54       0.000     0.000
  WS02006248              0.99    339.17      0  02:18       0.925     0.000
  WS02006249              1.17   1279.46      0  02:25       2.671     0.000
  WS02006251              0.01     52.75      0  02:20       0.000     0.000
  WS02006252              0.18    559.70      0  02:25       0.143     0.000
  WS02006253              0.01    104.00      0  02:20       0.000     0.000
  WS02006256              0.75    283.74      0  02:30       0.452     0.000
  YS02001580              0.01     98.98      0  02:17       0.000     0.000
  YS02001586              0.31    245.57      0  02:26       0.141     0.000
  YS02001600              0.01      0.13      0  02:21       0.000     0.000
  YS02001601              0.45    947.59      0  02:26       0.810     0.000
  YS02001602              0.31     61.93      0  02:25       0.062     0.000
  YS02001605              0.01      3.79      0  02:17       0.000     0.000
  YS02001610              0.27    480.04      0  02:27       0.288     0.000
  YS02001616              0.01      8.96      0  02:17       0.000     0.000
  YS02001625              0.22   1077.18      0  02:27       0.455     0.000
  YS02001629              0.07    147.19      0  02:25       0.020     0.000
  YS02001633              0.01      0.81      0  02:21       0.000     0.000
  YS02001644              0.07    444.95      0  02:25       0.062     0.000
  YS02001779              0.05    160.41      0  02:21       0.013     0.000
  YS02001882              0.01      1.95      0  02:21       0.000     0.000
  YS02001884              0.01      2.27      0  02:21       0.000     0.000
  YS02001887              0.01      1.89      0  02:21       0.000     0.000
  YS02001890              0.11    152.64      0  02:25       0.029     0.000
  YS02001907              0.23   1387.08      0  02:25       0.629     0.000
  YS02001918              0.01     71.06      0  02:21       0.001     0.000
  YS02001926              0.01      8.79      0  02:21       0.000     0.000
  YS02001929              0.01    310.07      0  02:21       0.001     0.000
  YSB1171                 0.18    759.79      0  02:25       0.276     0.000
  
  
  **********************
  Storage Volume Summary
  **********************
  
  ------------------------------------------------------------------------------------------------
                         Average    Avg   Evap  Exfil     Maximum    Max    Time of Max    Maximum
                          Volume   Pcnt   Pcnt   Pcnt      Volume   Pcnt     Occurrence    Outflow
  Storage Unit           1000 m   Full   Loss   Loss     1000 m   Full    days hr:min        LPS
  ------------------------------------------------------------------------------------------------
  CC-storage               1.561   24.3    0.0    0.0       4.200   65.5       0  03:10    1566.00
  JK-storage               0.006    2.0    0.0    0.0       0.151   51.7       0  00:05    2300.00
  XR-storage               0.943   65.5    0.0    0.0       1.111   77.1       0  08:00     190.00
  
  
  ***********************
  Outfall Loading Summary
  ***********************
  
  -----------------------------------------------------------
                         Flow       Avg       Max       Total
                         Freq      Flow      Flow      Volume
  Outfall Node           Pcnt       LPS       LPS    10^6 ltr
  -----------------------------------------------------------
  CC-1                  39.91    391.95    683.00       3.184
  CC-2                  58.41    420.12    683.00       6.080
  JK-1                  68.31    138.24   1000.00       1.948
  JK-2                  27.21    296.50   1000.00       1.852
  WSC                   99.99    573.64   1494.56      13.700
  -----------------------------------------------------------
  System                58.77   1820.45   4146.95      26.763
  
  
  ********************
  Link Flow Summary
  ********************
  
  -----------------------------------------------------------------------------
                                 Maximum  Time of Max   Maximum    Max/    Max/
                                  |Flow|   Occurrence   |Veloc|    Full    Full
  Link                 Type          LPS  days hr:min     m/sec    Flow   Depth
  -----------------------------------------------------------------------------
  1                    CONDUIT   1494.56     0  02:28      3.69    0.52    0.51
  HS02004478WS02006287 CONDUIT   2293.43     0  02:25      2.58    0.64    1.00
  HS02004479HS02004480 CONDUIT    425.17     0  02:21      0.61    0.41    1.00
  HS02004480HS02004478 CONDUIT   2091.82     0  02:19      2.99    8.81    1.00
  HS02004770HS02004777 CONDUIT    751.77     0  02:18      1.07    1.37    1.00
  HS02004777HS02004785 CONDUIT    758.29     0  02:18      1.12    0.93    1.00
  HS02004785HS02004788 CONDUIT    632.36     0  02:18      1.36    4.77    1.00
  HS02004788HS02004792 CONDUIT    811.07     0  02:36      1.45    0.54    1.00
  HS02004792HS02004799 CONDUIT   1574.80     0  02:19      2.25    0.96    1.00
  HS02004799HS02004480 CONDUIT   1734.71     0  02:19      2.48    2.19    1.00
  HS02004802HS02004478 CONDUIT   1090.10     0  02:25      1.56    0.96    1.00
  HS02004807HS02004802 CONDUIT   1089.71     0  02:25      1.56    2.08    1.00
  HS02004817HS02004807 CONDUIT    716.54     0  02:26      1.02    0.42    1.00
  HS02004817HS02004824 CONDUIT    714.93     0  02:26      1.02    0.32    1.00
  HS02004824HS02004830 CONDUIT    620.06     0  02:19      0.89    0.81    1.00
  HS02004830HS02004837 CONDUIT    629.62     0  02:18      0.99    0.63    1.00
  HS02004837HS02004842 CONDUIT    818.56     0  02:19      1.17    0.49    1.00
  HS02004842HS02004848 CONDUIT    818.63     0  02:19      1.30    0.48    1.00
  HS02004848HS02004852 CONDUIT   1032.80     0  02:20      1.60    1.16    1.00
  HS02004852HS02004856 CONDUIT    979.90     0  02:20      1.47    1.12    1.00
  HS02004856HS02004862 CONDUIT   1070.06     0  02:20      1.71    1.07    1.00
  HS02004862HS02004870 CONDUIT   1180.08     0  02:20      1.92    1.27    1.00
  HS02004870HS02004876 CONDUIT   1153.97     0  02:25      1.78    0.77    1.00
  HS02004876HS02004881 CONDUIT   1358.27     0  02:25      2.38   14.45    1.00
  HS02004881HS02006253 CONDUIT   1473.31     0  02:25      2.21    0.29    1.00
  HS02004901HS02004770 CONDUIT    265.69     0  02:33      0.38    1.00    1.00
  WS02001211WS02001212 CONDUIT    213.78     0  02:54      0.54    0.16    0.69
  WS02001212WS02001213 CONDUIT    219.92     0  02:55      1.03    0.34    0.56
  WS02001213WS02003059 CONDUIT    225.90     0  02:55      0.47    0.37    0.89
  WS02003059WS02003060 CONDUIT    234.56     0  02:54      0.66    0.15    0.81
  WS02003060WS02003069 CONDUIT   1491.58     0  02:26      2.08    0.58    0.61
  WS02003066WSF200     CONDUIT   1291.50     0  02:25      3.25    0.22    0.38
  WS02003067WS02003066 CONDUIT   1291.32     0  02:25      1.99    0.41    0.56
  WS02003069WS02003072 CONDUIT   1491.69     0  02:27      1.89    0.72    0.66
  WS02003072WS02003073 CONDUIT   1492.00     0  02:27      2.05    3.22    0.61
  WS02004138WS02004139 CONDUIT    190.00     0  00:31      2.17    0.04    0.41
  WS02004139WS02001211 CONDUIT    198.48     0  02:55      0.55    0.25    0.60
  WS02004401WS02004402 CONDUIT   1291.94     0  02:25      2.07    1.55    1.00
  WS02004402WS02004403 CONDUIT   1291.96     0  02:25      1.84    1.86    1.00
  WS02004403WS02004404 CONDUIT   1291.94     0  02:25      1.68    0.93    1.00
  WS02004404WS02004405 CONDUIT   1292.68     0  02:25      1.86   12.66    1.00
  WS02004405WS02004406 CONDUIT   1292.83     0  02:25      1.80    2.55    1.00
  WS02004406WS02004407 CONDUIT   1293.00     0  02:25      1.70    0.58    0.95
  WS02004407WS02004409 CONDUIT   1290.38     0  02:25      1.74    0.46    0.95
  WS02004409WS02004410 CONDUIT   1290.56     0  02:25      1.64    1.67    1.00
  WS02004410WS02004411 CONDUIT   1290.56     0  02:25      1.64    1.76    1.00
  WS02004411WS02004412 CONDUIT   1290.41     0  02:25      1.64    1.83    1.00
  WS02004412WS02004413 CONDUIT   1290.56     0  02:25      1.64    0.86    1.00
  WS02004413WS02003067 CONDUIT   1290.58     0  02:25      2.00    0.55    0.77
  WS02006109WS02006110 CONDUIT   1306.78     0  00:00      3.15    2.51    1.00
  WS02006110WS02006113 CONDUIT   1123.27     0  02:36      2.23    1.02    1.00
  WS02006111WS02006112 CONDUIT   2307.30     0  00:00      9.18    1.10    1.00
  WS02006112WS02006115 CONDUIT   2152.75     0  00:00      2.85    1.27    1.00
  WS02006113WS02006111 CONDUIT   1176.04     0  00:00      2.65    1.41    1.00
  WS02006115WS02006116 CONDUIT   1291.54     0  02:24      1.81    1.66    1.00
  WS02006116WS02004401 CONDUIT   1291.65     0  02:25      2.21    1.78    1.00
  WS02006228WS02006109 CONDUIT   1282.85     0  02:25      2.55    5.60    1.00
  WS02006229WS02006228 CONDUIT   1282.71     0  02:25      2.55    4.25    1.00
  WS02006230WS02006229 CONDUIT   1010.66     0  02:25      2.63   22.49    1.00
  WS02006231WS02006230 CONDUIT    453.29     0  02:35      1.29    6.88    1.00
  WS02006232WS02006231 CONDUIT    453.34     0  02:22      1.18    0.95    1.00
  WS02006234WS02006232 CONDUIT    453.09     0  02:18      1.18    0.92    1.00
  WS02006235WS02006234 CONDUIT    413.50     0  03:13      1.07    4.36    1.00
  WS02006238WS02006235 CONDUIT    415.67     0  02:31      1.23    0.93    1.00
  WS02006239WS02006238 CONDUIT    415.06     0  02:31      1.08    1.33    1.00
  WS02006240WS02006239 CONDUIT    414.89     0  02:31      1.09    1.31    1.00
  WS02006242WS02006240 CONDUIT    415.00     0  02:35      1.08    1.65    1.00
  WS02006243WS02006242 CONDUIT    307.43     0  03:08      1.14    0.66    1.00
  WS02006245WS02006243 CONDUIT    307.48     0  03:08      1.15    0.91    1.00
  WS02006247WS02006245 CONDUIT    307.55     0  03:08      1.10    2.44    1.00
  WS02006248WS02006247 CONDUIT    307.65     0  03:08      1.17    0.67    1.00
  WS02006249WS02006248 CONDUIT    307.82     0  03:08      1.15    1.69    1.00
  WS02006251WS02006249 CONDUIT   1340.35     0  02:25      3.48    3.86    1.00
  WS02006252WS02006251 CONDUIT   1298.45     0  00:05     20.66    4.77    1.00
  WS02006253WS02006251 CONDUIT   1503.76     0  02:25      3.91    4.51    1.00
  WS02006256WS02006235 CONDUIT    241.47     0  03:30      3.42    2.56    1.00
  WS02006280WS02006229 CONDUIT   2293.64     0  02:25      3.86    0.49    1.00
  WS02006284WS02006280 CONDUIT   2292.75     0  02:25      3.02    0.96    1.00
  WS02006287WS02006284 CONDUIT   2292.31     0  02:25      2.92    1.06    1.00
  WSF200WS02003060     CONDUIT   1291.87     0  02:26      2.29    0.29    0.50
  YS02001580YS02001583 CONDUIT    112.99     0  02:17      0.62    0.44    1.00
  YS02001583YS02001586 CONDUIT    151.71     0  02:17      0.64    0.23    1.00
  YS02001586YS02001590 CONDUIT    317.97     0  02:35      1.25    0.56    1.00
  YS02001590YS02001593 CONDUIT    318.07     0  02:35      1.12    2.00    1.00
  YS02001593YS02001596 CONDUIT    317.92     0  02:30      1.75    0.50    1.00
  YS02001596YS02001600 CONDUIT    318.02     0  02:29      1.24    0.62    1.00
  YS02001600YS02001601 CONDUIT    317.79     0  02:25      1.12    0.55    1.00
  YS02001601YS02001602 CONDUIT    507.72     0  02:43      1.80    1.83    1.00
  YS02001602YS02001605 CONDUIT    507.97     0  02:43      1.80   10.75    1.00
  YS02001605YS02001607 CONDUIT    508.04     0  02:43      1.80    2.79    1.00
  YS02001607YS02001610 CONDUIT    510.61     0  02:16      0.65    0.49    1.00
  YS02001610YS02001613 CONDUIT    512.69     0  02:16      0.65    0.59    1.00
  YS02001613YS02001616 CONDUIT    513.06     0  02:16      0.66    0.44    1.00
  YS02001616YS02001619 CONDUIT    509.36     0  02:43      0.68    0.88    1.00
  YS02001619YS02001622 CONDUIT    931.39     0  02:20      1.19    1.37    1.00
  YS02001622YS02001625 CONDUIT    931.02     0  02:20      1.19    0.50    1.00
  YS02001625YS02001629 CONDUIT    931.00     0  02:20      1.19    0.44    1.00
  YS02001629YS02163301 CONDUIT    932.45     0  02:38      1.19    1.15    1.00
  YS02001633YS02163601 CONDUIT   1392.34     0  02:20      1.77    1.46    1.00
  YS02001641YS02001644 CONDUIT   1390.75     0  02:20      1.77    4.50    1.00
  YS02001644YS02001647 CONDUIT   1820.96     0  02:21      2.32    1.07    1.00
  YS02001647YS02001649 CONDUIT   1817.91     0  02:20      2.33    0.96    1.00
  YS02001649YS02001757 CONDUIT   2069.37     0  02:20      2.65    1.26    1.00
  YS02001652YS02001649 CONDUIT    792.10     0  02:25      1.01    0.39    1.00
  YS02001655YS02001652 CONDUIT    790.90     0  02:25      1.24    0.38    1.00
  YS02001658YS02001655 CONDUIT    789.86     0  02:25      1.87    0.34    1.00
  YS02001661YS02001658 CONDUIT    788.82     0  02:25      2.33    0.31    1.00
  YS02001664YS02001661 CONDUIT    820.96     0  02:25      2.34    0.26    0.76
  YS02001745YS02001748 CONDUIT    549.43     0  02:23      2.20    0.21    0.87
  YS02001748YS02001751 CONDUIT    477.09     0  02:24      1.71    0.24    1.00
  YS02001751YS02001754 CONDUIT    477.65     0  02:24      1.34    0.23    1.00
  YS02001754YS02001757 CONDUIT    477.05     0  02:24      0.61    0.19    1.00
  YS02001757CaochengTiaoxuchi CONDUIT   3465.16     0  02:25      6.32    1.50    1.00
  YS02001759YS02001757 CONDUIT   1363.17     0  02:26      1.74    0.97    1.00
  YS02001762YS02001759 CONDUIT    812.73     0  02:26      1.03    0.94    1.00
  YS02001765YS02001762 CONDUIT    811.96     0  02:26      1.03    0.76    1.00
  YS02001767YS02001765 CONDUIT    811.04     0  02:26      1.03    1.02    1.00
  YS02001770YS02001767 CONDUIT    809.71     0  02:26      1.03    3.21    1.00
  YS02001774YS02001770 CONDUIT    218.20     0  02:21      0.28    0.14    1.00
  YS02001779YS02001774 CONDUIT    216.79     0  02:21      0.28    0.11    1.00
  YS02001783YS02001784 CONDUIT   1160.83     0  02:24      2.31    1.60    1.00
  YS02001784YS02001785 CONDUIT   1161.51     0  02:23      2.31    2.70    1.00
  YS02001786YS02001788 CONDUIT   1161.50     0  02:23      2.48    2.24    0.89
  YS02001788YS02001790 CONDUIT   1175.63     0  02:24      2.72    0.87    0.84
  YS02001790YS02001791 CONDUIT   1285.58     0  02:26      3.41    1.40    0.70
  YS02001791YS02001793 CONDUIT   1244.73     0  02:22      6.78    0.53    0.41
  YS02001793JiankangQianchi CONDUIT   1280.41     0  02:22     22.83    0.10    0.60
  YS02001882YS02001884 CONDUIT     38.25     0  02:18      0.08    0.04    1.00
  YS02001884YS02001887 CONDUIT     74.73     0  02:18      0.10    0.10    1.00
  YS02001887YS02001890 CONDUIT    664.05     0  02:25      0.85    1.14    1.00
  YS02001890YS02001895 CONDUIT    516.20     0  02:27      0.66    0.24    1.00
  YS02001895YS02001898 CONDUIT    516.41     0  02:27      0.66    0.90    1.00
  YS02001898YS02001901 CONDUIT    516.50     0  02:27      0.66    0.33    1.00
  YS02001901YS02001904 CONDUIT    516.22     0  02:27      0.66    0.80    1.00
  YS02001904YS02001907 CONDUIT    515.90     0  02:27      0.66    0.18    1.00
  YS02001907YS02006553 CONDUIT    799.51     0  02:36      0.89    0.94    1.00
  YS02001910YS02001907 CONDUIT   1167.67     0  02:25      1.49    0.66    1.00
  YS02001915YS02001910 CONDUIT   1168.13     0  02:25      1.49    0.58    1.00
  YS02001918YS02001915 CONDUIT    441.92     0  02:22      0.56    0.24    1.00
  YS02001920YS02001918 CONDUIT    440.64     0  02:22      0.67    0.43    1.00
  YS02001923YS02001920 CONDUIT    437.22     0  02:22      0.69    0.20    1.00
  YS02001926YS02001923 CONDUIT    407.38     0  02:25      0.96    0.58    1.00
  YS02001929YS02001926 CONDUIT    403.92     0  02:25      1.11    0.19    1.00
  YS02006553YS02006556 CONDUIT    799.40     0  02:36      1.02    0.68    1.00
  YS02006556YS02006558 CONDUIT    800.30     0  02:36      1.02    0.63    1.00
  YS02006558YS02006561 CONDUIT   1161.90     0  02:20      4.11    2.57    1.00
  YS02006561YS02001783 CONDUIT   1160.65     0  02:24      2.31    0.60    1.00
  YS02163301YS02001633 CONDUIT    932.32     0  02:38      1.19    0.88    1.00
  YS02163601YS02164001 CONDUIT   1392.31     0  02:20      1.77    1.23    1.00
  YS02164001YS02001641 CONDUIT   1391.52     0  02:20      1.77    1.90    1.00
  YSB1154YSB6556       CONDUIT    352.67     0  02:25      0.92    0.63    1.00
  YSB1171HS02004479    CONDUIT    425.75     0  02:21      0.85    0.28    1.00
  YSB1174YSB1171       CONDUIT    311.39     0  02:25      0.81    0.48    1.00
  YSB6556YSB1171       CONDUIT    353.63     0  02:25      0.92    0.36    1.00
  CC-R1                PUMP       683.00     0  02:01              1.00
  CC-R2                PUMP       683.00     0  00:20              1.00
  CC-S1                PUMP       200.00     0  00:05              1.00
  CC-S2                PUMP       200.00     0  01:43              1.00
  JK-R1                PUMP      1000.00     0  00:05              1.00
  JK-R2                PUMP      1000.00     0  02:20              1.00
  JK-S                 PUMP       300.00     0  01:40              1.00
  XR-1                 PUMP        95.00     0  00:10              1.00
  XR-2                 PUMP        95.00     0  00:29              1.00
  XR-3                 PUMP         0.00     0  00:00              0.00
  XR-4                 PUMP         0.00     0  00:00              0.00
  
  
  ***************************
  Flow Classification Summary
  ***************************
  
  -------------------------------------------------------------------------------------
                      Adjusted    ---------- Fraction of Time in Flow Class ---------- 
                       /Actual         Up    Down  Sub   Sup   Up    Down  Norm  Inlet 
  Conduit               Length    Dry  Dry   Dry   Crit  Crit  Crit  Crit  Ltd   Ctrl  
  -------------------------------------------------------------------------------------
  1                       1.00   0.00  0.00  0.00  0.00  1.00  0.00  0.00  0.39  0.00
  HS02004478WS02006287    1.00   0.17  0.00  0.00  0.66  0.17  0.00  0.00  0.61  0.00
  HS02004479HS02004480    1.00   0.04  0.00  0.00  0.96  0.00  0.00  0.00  0.12  0.00
  HS02004480HS02004478    1.00   0.13  0.00  0.00  0.59  0.00  0.00  0.27  0.00  0.00
  HS02004770HS02004777    1.00   0.00  0.13  0.00  0.87  0.00  0.00  0.00  0.03  0.00
  HS02004777HS02004785    1.00   0.00  0.00  0.00  1.00  0.00  0.00  0.00  0.13  0.00
  HS02004785HS02004788    1.00   0.00  0.00  0.00  1.00  0.00  0.00  0.00  0.00  0.00
  HS02004788HS02004792    1.00   0.00  0.00  0.00  0.99  0.01  0.00  0.00  0.92  0.00
  HS02004792HS02004799    1.00   0.00  0.00  0.00  0.99  0.01  0.00  0.00  0.89  0.00
  HS02004799HS02004480    1.00   0.00  0.03  0.00  0.83  0.00  0.13  0.00  0.00  0.00
  HS02004802HS02004478    1.00   0.13  0.01  0.00  0.86  0.00  0.00  0.00  0.03  0.00
  HS02004807HS02004802    1.00   0.13  0.00  0.00  0.85  0.00  0.00  0.02  0.00  0.00
  HS02004817HS02004807    1.00   0.00  0.13  0.00  0.87  0.00  0.00  0.00  0.01  0.00
  HS02004817HS02004824    1.00   0.00  0.00  0.00  1.00  0.00  0.00  0.00  0.85  0.00
  HS02004824HS02004830    1.00   0.00  0.00  0.00  1.00  0.00  0.00  0.00  0.01  0.00
  HS02004830HS02004837    1.00   0.00  0.00  0.00  1.00  0.00  0.00  0.00  0.91  0.00
  HS02004837HS02004842    1.00   0.00  0.00  0.00  0.99  0.01  0.00  0.00  0.11  0.00
  HS02004842HS02004848    1.00   0.00  0.13  0.00  0.87  0.00  0.00  0.00  0.57  0.00
  HS02004848HS02004852    1.00   0.13  0.00  0.00  0.87  0.00  0.00  0.00  0.69  0.00
  HS02004852HS02004856    1.00   0.13  0.01  0.00  0.86  0.00  0.00  0.00  0.70  0.00
  HS02004856HS02004862    1.00   0.00  0.18  0.00  0.82  0.00  0.00  0.00  0.75  0.00
  HS02004862HS02004870    1.00   0.00  0.00  0.00  1.00  0.00  0.00  0.00  0.05  0.00
  HS02004870HS02004876    1.00   0.00  0.00  0.00  1.00  0.00  0.00  0.00  0.88  0.00
  HS02004876HS02004881    1.00   0.01  0.00  0.00  0.86  0.13  0.00  0.00  0.00  0.00
  HS02004881HS02006253    1.00   0.02  0.03  0.00  0.34  0.01  0.00  0.60  0.29  0.00
  HS02004901HS02004770    1.00   0.13  0.00  0.00  0.87  0.00  0.00  0.00  0.00  0.00
  WS02001211WS02001212    1.00   0.00  0.02  0.00  0.98  0.00  0.00  0.00  0.00  0.00
  WS02001212WS02001213    1.00   0.02  0.00  0.00  0.32  0.00  0.65  0.00  0.00  0.00
  WS02001213WS02003059    1.00   0.00  0.01  0.00  0.99  0.00  0.00  0.00  0.00  0.00
  WS02003059WS02003060    1.00   0.00  0.00  0.00  1.00  0.00  0.00  0.00  0.03  0.00
  WS02003060WS02003069    1.00   0.00  0.00  0.00  0.97  0.03  0.00  0.00  0.49  0.00
  WS02003066WSF200        1.00   0.06  0.00  0.00  0.00  0.94  0.00  0.00  0.73  0.00
  WS02003067WS02003066    1.00   0.05  0.01  0.00  0.94  0.00  0.00  0.00  0.00  0.00
  WS02003069WS02003072    1.00   0.00  0.00  0.00  0.99  0.01  0.00  0.00  0.58  0.00
  WS02003072WS02003073    1.00   0.00  0.00  0.00  0.00  0.00  0.00  1.00  0.00  0.00
  WS02004138WS02004139    1.00   0.02  0.00  0.00  0.97  0.01  0.00  0.00  0.98  0.00
  WS02004139WS02001211    1.00   0.00  0.01  0.00  0.99  0.00  0.00  0.00  0.00  0.00
  WS02004401WS02004402    1.00   0.00  0.00  0.00  1.00  0.00  0.00  0.00  0.00  0.00
  WS02004402WS02004403    1.00   0.00  0.00  0.00  1.00  0.00  0.00  0.00  0.00  0.00
  WS02004403WS02004404    1.00   0.00  0.00  0.00  1.00  0.00  0.00  0.00  0.00  0.00
  WS02004404WS02004405    1.00   0.00  0.00  0.00  1.00  0.00  0.00  0.00  0.00  0.00
  WS02004405WS02004406    1.00   0.00  0.00  0.00  1.00  0.00  0.00  0.00  0.00  0.00
  WS02004406WS02004407    1.00   0.00  0.01  0.00  0.99  0.00  0.00  0.00  0.01  0.00
  WS02004407WS02004409    1.00   0.01  0.00  0.00  0.98  0.01  0.00  0.00  0.89  0.00
  WS02004409WS02004410    1.00   0.01  0.00  0.00  0.99  0.00  0.00  0.00  0.00  0.00
  WS02004410WS02004411    1.00   0.01  0.00  0.00  0.99  0.00  0.00  0.00  0.01  0.00
  WS02004411WS02004412    1.00   0.01  0.00  0.00  0.99  0.00  0.00  0.00  0.00  0.00
  WS02004412WS02004413    1.00   0.01  0.00  0.00  0.99  0.00  0.00  0.00  0.02  0.00
  WS02004413WS02003067    1.00   0.01  0.04  0.00  0.00  0.00  0.95  0.00  0.00  0.00
  WS02006109WS02006110    1.00   0.00  0.00  0.00  1.00  0.00  0.00  0.00  0.00  0.00
  WS02006110WS02006113    1.00   0.00  0.00  0.00  1.00  0.00  0.00  0.00  0.00  0.00
  WS02006111WS02006112    1.00   0.00  0.00  0.00  1.00  0.00  0.00  0.00  0.82  0.00
  WS02006112WS02006115    1.00   0.00  0.00  0.00  1.00  0.00  0.00  0.00  0.00  0.00
  WS02006113WS02006111    1.00   0.00  0.00  0.00  0.17  0.83  0.00  0.00  0.09  0.00
  WS02006115WS02006116    1.00   0.00  0.00  0.00  1.00  0.00  0.00  0.00  0.00  0.00
  WS02006116WS02004401    1.00   0.00  0.00  0.00  1.00  0.00  0.00  0.00  0.00  0.00
  WS02006228WS02006109    1.00   0.00  0.00  0.00  1.00  0.00  0.00  0.00  0.00  0.00
  WS02006229WS02006228    1.00   0.00  0.00  0.00  1.00  0.00  0.00  0.00  0.00  0.00
  WS02006230WS02006229    1.00   0.00  0.00  0.00  1.00  0.00  0.00  0.00  0.00  0.00
  WS02006231WS02006230    1.00   0.00  0.00  0.00  0.27  0.00  0.73  0.00  0.00  0.00
  WS02006232WS02006231    1.00   0.00  0.00  0.00  0.99  0.00  0.00  0.00  0.01  0.00
  WS02006234WS02006232    1.00   0.00  0.01  0.00  0.99  0.00  0.00  0.00  0.25  0.00
  WS02006235WS02006234    1.00   0.02  0.00  0.00  0.64  0.00  0.34  0.00  0.00  0.00
  WS02006238WS02006235    1.00   0.02  0.00  0.00  0.98  0.00  0.00  0.00  0.00  0.00
  WS02006239WS02006238    1.00   0.02  0.00  0.00  0.98  0.00  0.00  0.00  0.31  0.00
  WS02006240WS02006239    1.00   0.02  0.00  0.00  0.54  0.00  0.00  0.44  0.01  0.00
  WS02006242WS02006240    1.00   0.01  0.00  0.00  0.98  0.00  0.01  0.00  0.00  0.00
  WS02006243WS02006242    1.00   0.01  0.00  0.00  0.98  0.00  0.00  0.01  0.54  0.00
  WS02006245WS02006243    1.00   0.01  0.00  0.00  0.88  0.00  0.00  0.11  0.01  0.00
  WS02006247WS02006245    1.00   0.01  0.00  0.00  0.98  0.00  0.00  0.01  0.00  0.00
  WS02006248WS02006247    1.00   0.01  0.00  0.00  0.99  0.00  0.00  0.00  0.52  0.00
  WS02006249WS02006248    1.00   0.00  0.01  0.00  0.44  0.00  0.55  0.00  0.00  0.00
  WS02006251WS02006249    1.00   0.00  0.00  0.00  1.00  0.00  0.00  0.00  0.55  0.00
  WS02006252WS02006251    1.00   0.01  0.22  0.00  0.16  0.00  0.60  0.00  0.00  0.00
  WS02006253WS02006251    1.00   0.01  0.00  0.00  0.97  0.00  0.01  0.00  0.00  0.00
  WS02006256WS02006235    1.00   0.02  0.00  0.00  0.98  0.00  0.00  0.00  0.00  0.00
  WS02006280WS02006229    1.00   0.14  0.00  0.00  0.13  0.02  0.00  0.71  0.01  0.00
  WS02006284WS02006280    1.00   0.14  0.00  0.00  0.08  0.01  0.00  0.78  0.00  0.00
  WS02006287WS02006284    1.00   0.10  0.07  0.00  0.55  0.28  0.00  0.00  0.66  0.00
  WSF200WS02003060        1.00   0.00  0.06  0.00  0.72  0.22  0.00  0.00  0.62  0.00
  YS02001580YS02001583    1.00   0.28  0.55  0.00  0.16  0.00  0.00  0.00  0.64  0.00
  YS02001583YS02001586    1.00   0.42  0.36  0.00  0.22  0.00  0.00  0.00  0.65  0.00
  YS02001586YS02001590    1.00   0.13  0.00  0.00  0.42  0.05  0.00  0.41  0.39  0.00
  YS02001590YS02001593    1.00   0.13  0.01  0.00  0.09  0.00  0.78  0.00  0.00  0.00
  YS02001593YS02001596    1.00   0.14  0.00  0.00  0.10  0.01  0.00  0.75  0.02  0.00
  YS02001596YS02001600    1.00   0.14  0.00  0.00  0.16  0.02  0.00  0.68  0.05  0.00
  YS02001600YS02001601    1.00   0.13  0.01  0.00  0.86  0.00  0.00  0.00  0.62  0.00
  YS02001601YS02001602    1.00   0.13  0.01  0.00  0.86  0.00  0.00  0.00  0.00  0.00
  YS02001602YS02001605    1.00   0.14  0.00  0.00  0.86  0.00  0.00  0.00  0.00  0.00
  YS02001605YS02001607    1.00   0.14  0.00  0.00  0.86  0.00  0.00  0.00  0.00  0.00
  YS02001607YS02001610    1.00   0.13  0.01  0.00  0.86  0.00  0.00  0.00  0.02  0.00
  YS02001610YS02001613    1.00   0.13  0.00  0.00  0.87  0.00  0.00  0.00  0.01  0.00
  YS02001613YS02001616    1.00   0.13  0.00  0.00  0.87  0.00  0.00  0.00  0.01  0.00
  YS02001616YS02001619    1.00   0.13  0.00  0.00  0.87  0.00  0.00  0.00  0.00  0.00
  YS02001619YS02001622    1.00   0.13  0.00  0.00  0.87  0.00  0.00  0.00  0.28  0.00
  YS02001622YS02001625    1.00   0.13  0.00  0.00  0.87  0.00  0.00  0.00  0.06  0.00
  YS02001625YS02001629    1.00   0.13  0.06  0.00  0.12  0.00  0.68  0.00  0.00  0.00
  YS02001629YS02163301    1.00   0.17  0.01  0.00  0.82  0.00  0.00  0.00  0.00  0.00
  YS02001633YS02163601    1.00   0.00  0.01  0.00  0.99  0.00  0.00  0.00  0.15  0.00
  YS02001641YS02001644    1.00   0.00  0.01  0.00  0.99  0.00  0.00  0.00  0.00  0.00
  YS02001644YS02001647    1.00   0.00  0.19  0.00  0.81  0.00  0.00  0.00  0.00  0.00
  YS02001647YS02001649    1.00   0.00  0.19  0.00  0.58  0.23  0.00  0.00  0.58  0.00
  YS02001649YS02001757    1.00   0.00  0.00  0.00  0.89  0.11  0.00  0.00  0.71  0.00
  YS02001652YS02001649    1.00   0.00  0.00  0.00  0.95  0.05  0.00  0.00  0.76  0.00
  YS02001655YS02001652    1.00   0.00  0.00  0.00  0.18  0.01  0.00  0.81  0.05  0.00
  YS02001658YS02001655    1.00   0.00  0.15  0.00  0.66  0.20  0.00  0.00  0.75  0.00
  YS02001661YS02001658    1.00   0.15  0.00  0.00  0.44  0.42  0.00  0.00  0.73  0.00
  YS02001664YS02001661    1.00   0.13  0.00  0.00  0.76  0.11  0.00  0.00  0.86  0.00
  YS02001745YS02001748    1.00   0.00  0.00  0.00  0.03  0.01  0.00  0.97  0.02  0.00
  YS02001748YS02001751    1.00   0.00  0.00  0.00  0.84  0.16  0.00  0.00  0.80  0.00
  YS02001751YS02001754    1.00   0.00  0.00  0.00  0.16  0.01  0.00  0.83  0.04  0.00
  YS02001754YS02001757    1.00   0.00  0.00  0.00  1.00  0.00  0.00  0.00  0.82  0.00
  YS02001757CaochengTiaoxuchi    1.00   0.00  0.00  0.00  0.42  0.58  0.00  0.00  0.25  0.00
  YS02001759YS02001757    1.00   0.00  0.00  0.00  1.00  0.00  0.00  0.00  0.68  0.00
  YS02001762YS02001759    1.00   0.00  0.00  0.00  1.00  0.00  0.00  0.00  0.06  0.00
  YS02001765YS02001762    1.00   0.00  0.00  0.00  1.00  0.00  0.00  0.00  0.70  0.00
  YS02001767YS02001765    1.00   0.00  0.00  0.00  1.00  0.00  0.00  0.00  0.01  0.00
  YS02001770YS02001767    1.00   0.00  0.00  0.00  1.00  0.00  0.00  0.00  0.00  0.00
  YS02001774YS02001770    1.00   0.00  0.14  0.00  0.69  0.00  0.17  0.00  0.04  0.00
  YS02001779YS02001774    1.00   0.00  0.00  0.00  1.00  0.00  0.00  0.00  0.77  0.00
  YS02001783YS02001784    1.00   0.00  0.20  0.00  0.80  0.00  0.00  0.00  0.55  0.00
  YS02001784YS02001785    1.00   0.00  0.00  0.00  1.00  0.00  0.00  0.00  0.19  0.00
  YS02001786YS02001788    1.00   0.00  0.00  0.00  0.80  0.20  0.00  0.00  0.00  0.00
  YS02001788YS02001790    1.00   0.00  0.00  0.00  0.23  0.77  0.00  0.00  0.83  0.00
  YS02001790YS02001791    1.00   0.00  0.00  0.00  0.01  0.99  0.00  0.00  0.15  0.00
  YS02001791YS02001793    1.00   0.00  0.00  0.00  0.00  1.00  0.00  0.00  0.01  0.00
  YS02001793JiankangQianchi    1.00   0.00  0.00  0.00  0.32  0.67  0.00  0.00  0.42  0.00
  YS02001882YS02001884    1.00   0.16  0.01  0.00  0.83  0.00  0.00  0.00  0.00  0.00
  YS02001884YS02001887    1.00   0.06  0.05  0.00  0.89  0.00  0.00  0.00  0.00  0.00
  YS02001887YS02001890    1.00   0.00  0.00  0.00  0.97  0.00  0.03  0.00  0.00  0.00
  YS02001890YS02001895    1.00   0.00  0.18  0.00  0.82  0.00  0.00  0.00  0.00  0.00
  YS02001895YS02001898    1.00   0.18  0.00  0.00  0.80  0.00  0.02  0.00  0.00  0.00
  YS02001898YS02001901    1.00   0.18  0.01  0.00  0.82  0.00  0.00  0.00  0.01  0.00
  YS02001901YS02001904    1.00   0.18  0.00  0.00  0.82  0.00  0.00  0.00  0.00  0.00
  YS02001904YS02001907    1.00   0.00  0.18  0.00  0.82  0.00  0.00  0.00  0.00  0.00
  YS02001907YS02006553    1.00   0.00  0.02  0.00  0.98  0.00  0.00  0.00  0.00  0.00
  YS02001910YS02001907    1.00   0.00  0.00  0.00  0.97  0.00  0.00  0.03  0.12  0.00
  YS02001915YS02001910    1.00   0.00  0.00  0.00  0.96  0.04  0.00  0.00  0.18  0.00
  YS02001918YS02001915    1.00   0.00  0.00  0.00  0.98  0.02  0.00  0.00  0.78  0.00
  YS02001920YS02001918    1.00   0.00  0.00  0.00  1.00  0.00  0.00  0.00  0.01  0.00
  YS02001923YS02001920    1.00   0.00  0.00  0.00  1.00  0.00  0.00  0.00  0.94  0.00
  YS02001926YS02001923    1.00   0.00  0.07  0.00  0.04  0.00  0.88  0.00  0.00  0.00
  YS02001929YS02001926    1.00   0.00  0.13  0.00  0.87  0.00  0.00  0.00  0.84  0.00
  YS02006553YS02006556    1.00   0.01  0.00  0.00  0.99  0.00  0.00  0.00  0.03  0.00
  YS02006556YS02006558    1.00   0.00  0.00  0.00  1.00  0.00  0.00  0.00  0.00  0.00
  YS02006558YS02006561    1.00   0.20  0.00  0.00  0.04  0.76  0.00  0.00  0.19  0.00
  YS02006561YS02001783    1.00   0.20  0.00  0.00  0.07  0.73  0.00  0.00  0.69  0.00
  YS02163301YS02001633    1.00   0.00  0.17  0.00  0.83  0.00  0.00  0.00  0.00  0.00
  YS02163601YS02164001    1.00   0.00  0.08  0.00  0.92  0.00  0.00  0.00  0.00  0.00
  YS02164001YS02001641    1.00   0.01  0.07  0.00  0.92  0.00  0.00  0.00  0.06  0.00
  YSB1154YSB6556          1.00   0.12  0.00  0.00  0.88  0.00  0.00  0.00  0.02  0.00
  YSB1171HS02004479       1.00   0.04  0.00  0.00  0.95  0.00  0.00  0.01  0.11  0.00
  YSB1174YSB1171          1.00   0.05  0.04  0.00  0.91  0.00  0.00  0.00  0.00  0.00
  YSB6556YSB1171          1.00   0.04  0.08  0.00  0.88  0.00  0.00  0.00  0.00  0.00
  
  
  *************************
  Conduit Surcharge Summary
  *************************
  
  ----------------------------------------------------------------------------
                                                           Hours        Hours 
                         --------- Hours Full --------   Above Full   Capacity
  Conduit                Both Ends  Upstream  Dnstream   Normal Flow   Limited
  ----------------------------------------------------------------------------
  HS02004478WS02006287        0.33      0.33      0.49      0.01         0.01
  HS02004479HS02004480        0.48      0.48      0.51      0.01         0.01
  HS02004480HS02004478        0.43      0.48      0.43      1.42         0.43
  HS02004770HS02004777        0.40      0.40      0.40      0.09         0.05
  HS02004777HS02004785        0.36      0.36      0.40      0.01         0.01
  HS02004785HS02004788        0.35      0.36      0.35      1.12         0.33
  HS02004788HS02004792        0.35      0.35      0.45      0.01         0.01
  HS02004792HS02004799        0.45      0.45      0.56      0.01         0.01
  HS02004799HS02004480        0.48      0.48      0.56      0.63         0.01
  HS02004802HS02004478        0.44      0.44      0.50      0.01         0.01
  HS02004807HS02004802        0.47      0.47      0.49      0.16         0.16
  HS02004817HS02004807        0.47      0.47      0.95      0.01         0.01
  HS02004817HS02004824        0.35      0.35      0.95      0.01         0.01
  HS02004824HS02004830        0.33      0.33      0.35      0.01         0.01
  HS02004830HS02004837        0.29      0.29      0.33      0.01         0.01
  HS02004837HS02004842        0.29      0.29      0.41      0.01         0.01
  HS02004842HS02004848        0.25      0.25      0.41      0.01         0.01
  HS02004848HS02004852        0.25      0.25      0.28      0.02         0.01
  HS02004852HS02004856        0.28      0.28      0.29      0.02         0.01
  HS02004856HS02004862        0.26      0.26      0.30      0.01         0.01
  HS02004862HS02004870        0.30      0.30      0.31      0.07         0.06
  HS02004870HS02004876        0.31      0.31      0.35      0.01         0.01
  HS02004876HS02004881        0.34      0.35      0.34      1.16         0.33
  HS02004881HS02006253        0.34      0.34      1.21      0.01         0.01
  HS02004901HS02004770        0.40      0.40      0.40      0.01         0.01
  WS02003072WS02003073        0.01      0.01      0.01      2.57         0.01
  WS02004401WS02004402        1.37      1.37      1.39      1.15         1.15
  WS02004402WS02004403        1.39      1.39      1.39      1.36         1.36
  WS02004403WS02004404        1.39      1.39      1.48      0.01         0.01
  WS02004404WS02004405        1.46      1.48      1.46      3.77         1.46
  WS02004405WS02004406        1.44      1.46      1.44      1.61         1.44
  WS02004406WS02004407        0.01      0.01      1.44      0.01         0.01
  WS02004407WS02004409        0.01      0.01      0.79      0.01         0.01
  WS02004409WS02004410        0.73      0.79      0.73      1.21         0.73
  WS02004410WS02004411        0.66      0.73      0.66      1.33         0.66
  WS02004411WS02004412        0.59      0.66      0.59      1.35         0.59
  WS02004412WS02004413        0.59      0.59      1.11      0.01         0.01
  WS02004413WS02003067        0.01      0.01      1.11      0.01         0.01
  WS02006109WS02006110        1.61      1.62      1.76      1.63         0.01
  WS02006110WS02006113        1.10      1.10      1.76      0.23         0.01
  WS02006111WS02006112        1.06      1.07      2.06      0.01         0.01
  WS02006112WS02006115        1.23      1.23      1.63      0.01         0.01
  WS02006113WS02006111        1.09      1.10      1.09      1.15         1.09
  WS02006115WS02006116        1.28      1.28      1.28      1.20         1.19
  WS02006116WS02004401        1.36      1.36      1.37      1.34         1.33
  WS02006228WS02006109        1.75      1.76      1.75      2.89         1.75
  WS02006229WS02006228        1.74      1.75      1.74      1.93         1.74
  WS02006230WS02006229        1.85      1.89      1.85      3.75         1.06
  WS02006231WS02006230        1.47      1.47      1.53      3.38         0.77
  WS02006232WS02006231        1.52      1.52      1.60      0.01         0.10
  WS02006234WS02006232        1.54      1.54      1.60      0.01         0.01
  WS02006235WS02006234        1.53      1.53      1.55      3.18         0.76
  WS02006238WS02006235        1.55      1.55      1.57      0.01         0.27
  WS02006239WS02006238        1.55      1.55      1.56      0.62         0.03
  WS02006240WS02006239        1.53      1.53      1.53      0.61         0.02
  WS02006242WS02006240        1.52      1.53      1.55      0.97         0.66
  WS02006243WS02006242        1.51      1.51      1.54      0.01         0.01
  WS02006245WS02006243        1.48      1.48      1.50      0.01         0.01
  WS02006247WS02006245        1.47      1.48      1.47      2.70         0.49
  WS02006248WS02006247        1.43      1.43      1.47      0.01         0.01
  WS02006249WS02006248        1.41      1.41      1.43      1.74         0.01
  WS02006251WS02006249        1.41      1.41      1.43      0.87         0.88
  WS02006252WS02006251        1.16      1.16      1.30      0.02         0.01
  WS02006253WS02006251        1.40      1.40      1.42      0.60         0.01
  WS02006256WS02006235        3.38      3.39      5.05      0.69         0.01
  WS02006280WS02006229        0.59      0.59      0.70      0.01         0.01
  WS02006284WS02006280        0.51      0.51      0.58      0.01         0.01
  WS02006287WS02006284        0.42      0.42      0.52      0.19         0.19
  YS02001580YS02001583        0.42      0.42      0.45      0.01         0.01
  YS02001583YS02001586        0.42      0.42      0.51      0.01         0.01
  YS02001586YS02001590        0.52      0.52      0.58      0.01         0.01
  YS02001590YS02001593        0.58      0.58      0.59      0.60         0.01
  YS02001593YS02001596        0.59      0.59      0.68      0.01         0.01
  YS02001596YS02001600        0.72      0.72      0.81      0.01         0.01
  YS02001600YS02001601        0.87      0.87      1.13      0.01         0.01
  YS02001601YS02001602        1.03      1.03      1.17      0.83         0.01
  YS02001602YS02001605        0.98      0.98      1.03      2.08         0.01
  YS02001605YS02001607        0.94      0.98      0.94      1.09         0.94
  YS02001607YS02001610        0.52      0.52      0.54      0.01         0.01
  YS02001610YS02001613        0.51      0.51      0.54      0.01         0.01
  YS02001613YS02001616        0.47      0.47      0.51      0.01         0.01
  YS02001616YS02001619        0.46      0.46      0.47      0.01         0.01
  YS02001619YS02001622        0.46      0.46      0.46      0.61         0.44
  YS02001622YS02001625        0.46      0.46      0.63      0.01         0.01
  YS02001625YS02001629        0.39      0.39      0.63      0.01         0.01
  YS02001629YS02163301        0.61      0.61      0.62      0.29         0.29
  YS02001633YS02163601        0.64      0.64      0.67      0.39         0.39
  YS02001641YS02001644        0.48      0.53      0.48      1.20         0.48
  YS02001644YS02001647        0.27      0.27      0.48      0.05         0.01
  YS02001647YS02001649        0.27      0.27      0.31      0.01         0.01
  YS02001649YS02001757        0.31      0.31      0.31      0.36         0.27
  YS02001652YS02001649        0.22      0.22      0.31      0.01         0.01
  YS02001655YS02001652        0.14      0.14      0.21      0.01         0.01
  YS02001658YS02001655        0.08      0.08      0.14      0.01         0.01
  YS02001661YS02001658        0.01      0.01      0.08      0.01         0.01
  YS02001664YS02001661        0.01      0.01      0.02      0.01         0.01
  YS02001745YS02001748        0.01      0.01      0.02      0.01         0.01
  YS02001748YS02001751        0.05      0.05      0.10      0.01         0.01
  YS02001751YS02001754        0.10      0.10      0.14      0.01         0.01
  YS02001754YS02001757        0.16      0.16      0.31      0.01         0.01
  YS02001757CaochengTiaoxuchi        0.02      0.31      1.11      0.34         0.01
  YS02001759YS02001757        0.25      0.25      0.31      0.01         0.01
  YS02001762YS02001759        0.24      0.24      0.25      0.01         0.02
  YS02001765YS02001762        0.22      0.22      0.24      0.01         0.01
  YS02001767YS02001765        0.21      0.21      0.22      0.01         0.04
  YS02001770YS02001767        0.21      0.21      0.21      0.42         0.21
  YS02001774YS02001770        0.20      0.20      0.24      0.01         0.01
  YS02001779YS02001774        0.16      0.16      0.24      0.01         0.01
  YS02001783YS02001784        0.37      0.40      0.37      0.53         0.37
  YS02001784YS02001785        0.28      0.37      0.28      0.73         0.28
  YS02001786YS02001788        0.01      0.28      0.01      0.63         0.01
  YS02001790YS02001791        0.01      0.01      0.01      0.36         0.01
  YS02001793JiankangQianchi        0.01      0.01      0.36      0.01         0.01
  YS02001882YS02001884        0.35      0.35      0.36      0.01         0.01
  YS02001884YS02001887        0.38      0.38      0.39      0.01         0.01
  YS02001887YS02001890        0.40      0.40      0.41      0.05         0.01
  YS02001890YS02001895        0.34      0.34      0.43      0.01         0.01
  YS02001895YS02001898        0.33      0.33      0.34      0.01         0.01
  YS02001898YS02001901        0.34      0.34      0.38      0.01         0.01
  YS02001901YS02001904        0.37      0.37      0.38      0.01         0.01
  YS02001904YS02001907        0.37      0.37      0.61      0.01         0.01
  YS02001907YS02006553        0.73      0.73      0.79      0.01         0.01
  YS02001910YS02001907        0.42      0.42      0.60      0.01         0.01
  YS02001915YS02001910        0.35      0.35      0.42      0.01         0.01
  YS02001918YS02001915        0.27      0.27      0.35      0.01         0.01
  YS02001920YS02001918        0.27      0.27      0.28      0.01         0.01
  YS02001923YS02001920        0.23      0.23      0.28      0.01         0.01
  YS02001926YS02001923        0.02      0.02      0.03      0.01         0.01
  YS02001929YS02001926        0.01      0.01      0.03      0.01         0.01
  YS02006553YS02006556        0.51      0.51      0.61      0.01         0.01
  YS02006556YS02006558        0.56      0.56      0.62      0.01         0.01
  YS02006558YS02006561        0.30      0.50      0.30      0.69         0.30
  YS02006561YS02001783        0.24      0.24      0.40      0.01         0.01
  YS02163301YS02001633        0.62      0.62      0.66      0.01         0.01
  YS02163601YS02164001        0.55      0.55      0.67      0.24         0.01
  YS02164001YS02001641        0.53      0.55      0.53      0.62         0.45
  YSB1154YSB6556              0.54      0.54      0.65      0.01         0.01
  YSB1171HS02004479           0.45      0.45      0.66      0.01         0.01
  YSB1174YSB1171              0.60      0.60      0.86      0.01         0.01
  YSB6556YSB1171              0.54      0.54      1.01      0.01         0.01
  
  
  ***************
  Pumping Summary
  ***************
  
  ---------------------------------------------------------------------------------------------------------
                                                  Min       Avg       Max     Total     Power    % Time Off
                        Percent   Number of      Flow      Flow      Flow    Volume     Usage    Pump Curve
  Pump                 Utilized   Start-Ups       LPS       LPS       LPS  10^6 ltr     Kw-hr    Low   High
  ---------------------------------------------------------------------------------------------------------
  CC-R1                   54.17          12      0.00    391.95    683.00     3.182     53.23    0.0   91.4
  CC-R2                   76.04           9      0.00    420.12    683.00     6.077    101.35    0.0   89.2
  CC-S1                   19.79          10      0.00    197.65    200.00     1.115      7.59    0.0   27.2
  CC-S2                   22.92          12      0.00    176.71    200.00     1.038      7.70    0.0   49.7
  JK-R1                   50.00          10      0.00    138.24   1000.00     1.954      5.86    0.0    0.0
  JK-R2                   16.67           8      0.00    296.50   1000.00     1.853      5.10    0.0    0.0
  JK-S                    44.79          10      0.00     90.18    300.00     1.065     23.46    0.0    0.0
  XR-1                    97.91           1      0.00     95.00     95.00     2.679      9.63    0.0    0.0
  XR-2                    93.95           1      0.00     95.00     95.00     2.570      8.79    0.0    0.0
  XR-3                     0.00           0      0.00      0.00      0.00     0.000      0.00    0.0    0.0
  XR-4                     0.00           0      0.00      0.00      0.00     0.000      0.00    0.0    0.0
  

  Analysis begun on:  Thu Jun 15 19:52:47 2023
  Analysis ended on:  Thu Jun 15 19:52:59 2023
  Total elapsed time: 00:00:12