
  OWA STORM WATER MANAGEMENT MODEL - VERSION v5.2.3 (OWA 2023-03-28)
  ------------------------------------------------------------

  WARNING 04: minimum elevation drop used for Conduit WS02004404WS02004405
  WARNING 03: negative offset ignored for Link YS02001904YS02001907
  
  ****************
  Analysis Options
  ****************
  Flow Units ............... LPS
  Process Models:
    Rainfall/Runoff ........ YES
    RDII ................... NO
    Snowmelt ............... NO
    Groundwater ............ NO
    Flow Routing ........... YES
    Ponding Allowed ........ NO
    Water Quality .......... NO
  Infiltration Method ...... HORTON
  Flow Routing Method ...... DYNWAVE
  Surcharge Method ......... EXTRAN
  Starting Date ............ 08/28/2015 08:00:00
  Ending Date .............. 08/28/2015 16:00:00
  Antecedent Dry Days ...... 8.0
  Report Time Step ......... 00:01:00
  Wet Time Step ............ 00:01:00
  Dry Time Step ............ 00:01:00
  Routing Time Step ........ 30.00 sec
  Variable Time Step ....... YES
  Maximum Trials ........... 8
  Number of Threads ........ 1
  Head Tolerance ........... 0.001500 m
  
  
  **************************        Volume         Depth
  Runoff Quantity Continuity     hectare-m            mm
  **************************     ---------       -------
  Total Precipitation ......         4.196        69.261
  Evaporation Loss .........         0.000         0.000
  Infiltration Loss ........         0.247         4.075
  Surface Runoff ...........         3.889        64.194
  Final Storage ............         0.061         1.008
  Continuity Error (%) .....        -0.023
  
  
  **************************        Volume        Volume
  Flow Routing Continuity        hectare-m      10^6 ltr
  **************************     ---------     ---------
  Dry Weather Inflow .......         0.630         6.296
  Wet Weather Inflow .......         3.890        38.897
  Groundwater Inflow .......         0.000         0.000
  RDII Inflow ..............         0.000         0.000
  External Inflow ..........         0.105         1.045
  External Outflow .........         3.249        32.491
  Flooding Loss ............         1.866        18.658
  Evaporation Loss .........         0.000         0.000
  Exfiltration Loss ........         0.000         0.000
  Initial Stored Volume ....         0.303         3.031
  Final Stored Volume ......         0.173         1.732
  Continuity Error (%) .....        -7.331
  
  
  *************************
  Highest Continuity Errors
  *************************
  Node JK-storage (-59.55%)
  Node CC-storage (-6.63%)
  Node YS02001884 (5.17%)
  Node YS02001583 (-4.66%)
  Node HS02004842 (1.63%)
  
  
  ***************************
  Time-Step Critical Elements
  ***************************
  Link WS02006252WS02006251 (69.89%)
  Link YS02001793JiankangQianchi (12.43%)
  Link WS02006280WS02006229 (7.09%)
  Link WS02006238WS02006235 (3.14%)
  
  
  ********************************
  Highest Flow Instability Indexes
  ********************************
  Link WS02006113WS02006111 (27)
  Link WS02006111WS02006112 (20)
  Link WS02006238WS02006235 (16)
  Link WS02004404WS02004405 (15)
  Link WS02006239WS02006238 (13)
  
  
  *********************************
  Most Frequent Nonconverging Nodes
  *********************************
  Node CC-1 (10.01%)
  Node CC-2 (10.01%)
  Node JK-1 (10.01%)
  Node JK-2 (10.01%)
  Node WSC (10.01%)
  
  
  *************************
  Routing Time Step Summary
  *************************
  Minimum Time Step           :     0.00 sec
  Average Time Step           :     1.48 sec
  Maximum Time Step           :    30.00 sec
  % of Time in Steady State   :     0.00
  Average Iterations per Step :     3.08
  % of Steps Not Converging   :    10.01
  Time Step Frequencies       :
     30.000 - 13.228 sec      :     0.01 %
     13.228 -  5.833 sec      :     0.12 %
      5.833 -  2.572 sec      :    12.87 %
      2.572 -  1.134 sec      :    41.47 %
      1.134 -  0.500 sec      :    45.53 %
  
  
  ***************************
  Subcatchment Runoff Summary
  ***************************
  
  ------------------------------------------------------------------------------------------------------------------------------
                            Total      Total      Total      Total     Imperv       Perv      Total       Total     Peak  Runoff
                           Precip      Runon       Evap      Infil     Runoff     Runoff     Runoff      Runoff   Runoff   Coeff
  Subcatchment                 mm         mm         mm         mm         mm         mm         mm    10^6 ltr      LPS
  ------------------------------------------------------------------------------------------------------------------------------
  sub0                      69.26       0.00       0.00       1.00      63.17       3.85      67.02        0.05    43.01   0.968
  sub1                      69.26       0.00       0.00       1.73      60.40       5.90      66.29        0.44   302.12   0.957
  sub10                     69.26       0.00       0.00       1.21      62.44       4.33      66.77        0.74   513.13   0.964
  sub11                     69.26       0.00       0.00       1.19      62.46       4.35      66.81        0.78   565.86   0.965
  sub12                     69.26       0.00       0.00       1.94      59.09       7.07      66.16        0.58   448.99   0.955
  sub14                     69.26       0.00       0.00       1.36      61.77       4.87      66.65        0.63   453.10   0.962
  sub15                     69.26       0.00       0.00       5.42      47.51      15.36      62.88        1.08   720.82   0.908
  sub16                     69.26       0.00       0.00       5.58      45.50      17.28      62.78        0.66   479.73   0.906
  sub17                     69.26       0.00       0.00       5.44      46.18      16.73      62.90        0.54   390.04   0.908
  sub2                      69.26       0.00       0.00       7.79      42.73      17.84      60.58        0.56   321.37   0.875
  sub22                     69.26       0.00       0.00       8.24      38.70      21.54      60.25        3.81  2448.41   0.870
  sub23                     69.26       0.00       0.00       6.70      42.78      18.93      61.71        2.94  2003.31   0.891
  sub3                      69.26       0.00       0.00       8.47      42.69      17.16      59.85        1.35   699.62   0.864
  sub4                      69.26       0.00       0.00       1.95      60.22       5.67      65.90        1.37   757.40   0.951
  sub5                      69.26       0.00       0.00       1.06      63.11       3.79      66.91        0.76   519.45   0.966
  sub60                     69.26       0.00       0.00       1.83      59.75       6.49      66.24        0.87   641.95   0.956
  sub61                     69.26       0.00       0.00       2.66      56.36       9.12      65.48        1.20   893.19   0.945
  sub62                     69.26       0.00       0.00       1.22      62.44       4.33      66.76        1.83  1259.26   0.964
  sub63                     69.26       0.00       0.00       4.95      48.21      15.14      63.35        1.44  1022.69   0.915
  sub64                     69.26       0.00       0.00       2.50      57.67       7.89      65.56        1.57  1035.40   0.947
  sub65                     69.26       0.00       0.00       2.16      59.00       6.85      65.85        1.81  1156.36   0.951
  sub66                     69.26       0.00       0.00       6.19      48.10      13.89      61.99        2.89  1562.34   0.895
  sub67                     69.26       0.00       0.00       1.17      62.48       4.38      66.86        1.24   954.26   0.965
  sub68                     69.26       0.00       0.00       2.20      58.38       7.50      65.88        1.81  1292.76   0.951
  sub69                     69.26       0.00       0.00       1.99      58.76       8.40      67.16        2.49  1535.31   0.970
  sub7                      69.26       0.00       0.00       1.34      61.79       4.90      66.69        0.22   167.00   0.963
  sub70                     69.26       0.00       0.00       6.73      45.55      16.82      62.37        1.80   876.79   0.900
  sub71                     69.26       0.00       0.00       1.25      62.39       4.29      66.68        1.74  1115.06   0.963
  sub72                     69.26       0.00       0.00       1.12      63.01       3.73      66.74        0.92   542.94   0.964
  sub8                      69.26       0.00       0.00       1.35      61.78       4.88      66.66        0.43   307.73   0.962
  sub9                      69.26       0.00       0.00       1.36      61.78       4.88      66.65        0.32   230.16   0.962
  
  
  ******************
  Node Depth Summary
  ******************
  
  ---------------------------------------------------------------------------------
                                 Average  Maximum  Maximum  Time of Max    Reported
                                   Depth    Depth      HGL   Occurrence   Max Depth
  Node                 Type       Meters   Meters   Meters  days hr:min      Meters
  ---------------------------------------------------------------------------------
  HS02004478           JUNCTION     0.21     1.59    10.82     0  02:22        1.58
  HS02004479           JUNCTION     0.28     1.71    10.91     0  02:15        1.66
  HS02004480           JUNCTION     0.25     1.68    10.92     0  02:15        1.63
  HS02004770           JUNCTION     0.25     1.42    11.25     0  02:12        1.42
  HS02004777           JUNCTION     0.28     1.48    11.28     0  02:12        1.46
  HS02004785           JUNCTION     0.18     1.49    11.39     0  02:12        1.36
  HS02004788           JUNCTION     0.15     1.42    11.32     0  02:12        1.36
  HS02004792           JUNCTION     0.20     1.60    11.12     0  02:09        1.60
  HS02004799           JUNCTION     0.31     1.76    10.97     0  02:15        1.76
  HS02004802           JUNCTION     0.31     1.80    10.93     0  02:27        1.79
  HS02004807           JUNCTION     0.28     1.92    11.09     0  02:15        1.92
  HS02004817           JUNCTION     0.59     2.44    11.29     0  02:15        2.41
  HS02004824           JUNCTION     0.17     2.01    11.41     0  02:15        2.01
  HS02004830           JUNCTION     0.17     2.03    11.50     0  02:15        1.99
  HS02004837           JUNCTION     0.15     2.04    11.62     0  02:15        1.91
  HS02004842           JUNCTION     0.44     2.22    11.49     0  02:15        2.22
  HS02004848           JUNCTION     0.13     2.07    11.67     0  02:15        1.90
  HS02004852           JUNCTION     0.13     2.12    11.63     0  02:15        1.96
  HS02004856           JUNCTION     0.19     2.07    11.50     0  02:15        2.02
  HS02004862           JUNCTION     0.14     2.00    11.38     0  02:15        2.00
  HS02004870           JUNCTION     0.14     2.02    11.30     0  02:24        2.01
  HS02004876           JUNCTION     0.18     2.12    11.15     0  02:25        2.11
  HS02004881           JUNCTION     0.12     1.99    11.02     0  02:15        1.86
  HS02004901           JUNCTION     0.26     1.42    11.24     0  02:12        1.42
  WS02001211           JUNCTION     0.63     0.82     5.66     0  02:28        0.82
  WS02001212           JUNCTION     0.37     0.58     5.65     0  02:27        0.58
  WS02001213           JUNCTION     0.59     0.88     5.64     0  02:27        0.88
  WS02003059           JUNCTION     0.65     0.95     5.63     0  02:26        0.95
  WS02003060           JUNCTION     0.38     0.69     5.63     0  02:26        0.69
  WS02003066           JUNCTION     0.23     0.46     6.02     0  02:25        0.46
  WS02003067           JUNCTION     0.54     0.89     6.21     0  02:24        0.89
  WS02003069           JUNCTION     0.42     0.79     5.37     0  02:27        0.79
  WS02003072           JUNCTION     0.48     0.82     5.19     0  02:27        0.82
  WS02003073           JUNCTION     0.29     0.52     4.59     0  02:27        0.52
  WS02004138           JUNCTION     0.13     0.14     7.39     0  00:32        0.14
  WS02004139           JUNCTION     0.56     0.75     5.66     0  02:28        0.75
  WS02004401           JUNCTION     0.76     1.97     7.97     0  02:24        1.96
  WS02004402           JUNCTION     0.78     1.90     7.86     0  02:25        1.90
  WS02004403           JUNCTION     0.79     1.83     7.76     0  02:25        1.81
  WS02004404           JUNCTION     0.85     1.83     7.68     0  02:25        1.83
  WS02004405           JUNCTION     0.85     1.77     7.62     0  02:25        1.76
  WS02004406           JUNCTION     0.84     1.65     7.48     0  02:25        1.64
  WS02004407           JUNCTION     0.26     0.99     7.31     0  02:25        0.99
  WS02004409           JUNCTION     0.52     1.48     7.25     0  02:41        1.48
  WS02004410           JUNCTION     0.53     1.33     7.05     0  02:25        1.32
  WS02004411           JUNCTION     0.54     1.23     6.91     0  02:25        1.22
  WS02004412           JUNCTION     0.54     1.12     6.76     0  02:25        1.12
  WS02004413           JUNCTION     0.68     1.15     6.62     0  02:26        1.15
  WS02006109           JUNCTION     0.94     2.64     9.26     0  02:12        2.64
  WS02006110           JUNCTION     0.89     2.43     9.01     0  02:25        2.42
  WS02006111           JUNCTION     0.40     1.88     8.59     0  02:41        1.88
  WS02006112           JUNCTION     0.96     2.68     8.56     0  00:00        2.50
  WS02006113           JUNCTION     0.47     1.89     8.78     0  02:25        1.89
  WS02006115           JUNCTION     0.67     2.07     8.21     0  02:25        2.07
  WS02006116           JUNCTION     0.74     2.06     8.10     0  02:24        2.06
  WS02006228           JUNCTION     0.98     3.03     9.68     0  02:15        3.03
  WS02006229           JUNCTION     0.98     3.23     9.93     0  02:15        3.22
  WS02006230           JUNCTION     0.90     2.65     9.39     0  02:07        2.65
  WS02006231           JUNCTION     0.64     2.22     9.34     0  02:26        2.22
  WS02006232           JUNCTION     0.74     2.18     9.22     0  02:03        2.18
  WS02006234           JUNCTION     0.62     1.96     9.12     0  02:03        1.96
  WS02006235           JUNCTION     0.63     2.00     9.16     0  02:55        2.00
  WS02006238           JUNCTION     0.66     2.08     9.22     0  02:55        2.01
  WS02006239           JUNCTION     0.60     1.98     9.18     0  02:55        1.81
  WS02006240           JUNCTION     0.55     1.77     9.07     0  02:55        1.64
  WS02006242           JUNCTION     0.59     1.55     8.82     0  01:38        1.55
  WS02006243           JUNCTION     0.48     1.48     8.90     0  01:38        1.48
  WS02006245           JUNCTION     0.47     1.56     9.05     0  02:41        1.56
  WS02006247           JUNCTION     0.48     1.30     8.80     0  01:46        1.30
  WS02006248           JUNCTION     0.42     1.10     8.69     0  01:38        1.10
  WS02006249           JUNCTION     0.45     1.09     8.69     0  01:39        1.09
  WS02006251           JUNCTION     0.52     2.21     9.88     0  02:15        2.16
  WS02006252           JUNCTION     0.38     1.50     9.74     0  01:35        1.50
  WS02006253           JUNCTION     0.60     3.31    10.95     0  02:15        3.13
  WS02006256           JUNCTION     0.94     2.35     9.28     0  00:11        2.35
  WS02006280           JUNCTION     0.28     1.76    10.03     0  02:15        1.74
  WS02006284           JUNCTION     0.54     1.95    10.35     0  02:15        1.94
  WS02006287           JUNCTION     0.27     1.74    10.69     0  02:26        1.74
  WSF200               JUNCTION     0.22     0.53     5.76     0  02:25        0.53
  YS02001580           JUNCTION     0.08     1.05     9.59     0  02:10        1.05
  YS02001583           JUNCTION     0.11     1.14     9.64     0  02:10        0.82
  YS02001586           JUNCTION     0.18     1.13     9.30     0  02:10        1.13
  YS02001590           JUNCTION     0.28     1.40     9.26     0  02:10        1.40
  YS02001593           JUNCTION     0.21     1.36     9.22     0  02:41        1.29
  YS02001596           JUNCTION     0.28     1.71     9.13     0  02:41        1.65
  YS02001600           JUNCTION     0.33     1.87     9.00     0  02:10        1.87
  YS02001601           JUNCTION     0.52     2.06     8.90     0  02:09        2.06
  YS02001602           JUNCTION     0.44     1.87     8.77     0  02:14        1.87
  YS02001605           JUNCTION     0.41     1.78     8.68     0  02:36        1.78
  YS02001607           JUNCTION     0.41     1.66     8.51     0  02:41        1.65
  YS02001610           JUNCTION     0.45     1.68     8.48     0  02:15        1.68
  YS02001613           JUNCTION     0.41     1.70     8.54     0  02:41        1.66
  YS02001616           JUNCTION     0.34     1.61     8.52     0  02:24        1.61
  YS02001619           JUNCTION     0.32     1.61     8.54     0  02:24        1.61
  YS02001622           JUNCTION     0.31     1.58     8.49     0  02:26        1.58
  YS02001625           JUNCTION     0.56     1.78     8.38     0  02:15        1.78
  YS02001629           JUNCTION     0.42     1.85     8.40     0  02:18        1.85
  YS02001633           JUNCTION     0.50     2.01     8.46     0  02:20        2.01
  YS02001641           JUNCTION     0.48     1.95     8.38     0  02:24        1.94
  YS02001644           JUNCTION     0.47     1.92     8.35     0  02:19        1.92
  YS02001647           JUNCTION     0.26     1.77     8.38     0  02:20        1.74
  YS02001649           JUNCTION     0.31     2.00     8.39     0  02:20        1.95
  YS02001652           JUNCTION     0.20     1.83     8.43     0  02:19        1.81
  YS02001655           JUNCTION     0.15     1.70     8.55     0  02:19        1.60
  YS02001658           JUNCTION     0.10     1.79     8.93     0  02:19        1.37
  YS02001661           JUNCTION     0.14     1.18     8.59     0  02:24        1.16
  YS02001664           JUNCTION     0.05     0.65     8.57     0  02:24        0.63
  YS02001745           JUNCTION     0.06     0.82     8.34     0  02:24        0.80
  YS02001748           JUNCTION     0.09     1.73     8.81     0  02:20        1.23
  YS02001751           JUNCTION     0.12     1.92     8.80     0  02:20        1.42
  YS02001754           JUNCTION     0.18     1.95     8.56     0  02:20        1.66
  YS02001757           JUNCTION     0.33     2.03     8.29     0  02:20        1.98
  YS02001759           JUNCTION     0.27     2.03     8.39     0  02:20        2.00
  YS02001762           JUNCTION     0.27     2.01     8.41     0  02:20        1.98
  YS02001765           JUNCTION     0.25     1.97     8.42     0  02:20        1.94
  YS02001767           JUNCTION     0.24     1.95     8.44     0  02:20        1.92
  YS02001770           JUNCTION     0.26     1.95     8.45     0  02:20        1.94
  YS02001774           JUNCTION     0.32     2.00     8.42     0  02:20        1.99
  YS02001779           JUNCTION     0.16     1.68     8.37     0  02:17        1.68
  YS02001783           JUNCTION     0.22     1.33     7.48     0  02:16        1.32
  YS02001784           JUNCTION     0.24     1.18     7.24     0  02:16        1.14
  YS02001786           JUNCTION     0.20     0.92     6.95     0  02:16        0.88
  YS02001788           JUNCTION     0.14     0.63     6.60     0  02:23        0.62
  YS02001790           JUNCTION     0.17     0.73     6.37     0  02:25        0.72
  YS02001791           JUNCTION     0.11     0.44     5.91     0  02:29        0.43
  YS02001793           JUNCTION     0.07     0.26     5.09     0  02:25        0.24
  YS02001882           JUNCTION     0.28     1.71     8.42     0  02:15        1.66
  YS02001884           JUNCTION     0.37     1.79     8.41     0  02:15        1.75
  YS02001887           JUNCTION     0.45     1.84     8.38     0  02:15        1.84
  YS02001890           JUNCTION     0.48     1.81     8.32     0  02:15        1.81
  YS02001895           JUNCTION     0.25     1.57     8.31     0  02:18        1.56
  YS02001898           JUNCTION     0.26     1.57     8.31     0  02:26        1.57
  YS02001901           JUNCTION     0.37     1.69     8.30     0  02:26        1.69
  YS02001904           JUNCTION     0.35     1.64     8.27     0  02:21        1.64
  YS02001907           JUNCTION     0.66     1.96     8.25     0  02:16        1.96
  YS02001910           JUNCTION     0.47     1.99     8.49     0  02:16        1.93
  YS02001915           JUNCTION     0.29     1.94     8.66     0  02:16        1.87
  YS02001918           JUNCTION     0.16     1.81     8.88     0  02:16        1.56
  YS02001920           JUNCTION     0.23     2.14     9.15     0  02:16        1.64
  YS02001923           JUNCTION     0.12     2.03     9.29     0  02:16        1.47
  YS02001926           JUNCTION     0.15     1.90     9.35     0  02:16        1.23
  YS02001929           JUNCTION     0.09     1.78     9.47     0  02:16        1.07
  YS02006553           JUNCTION     0.66     1.99     8.28     0  02:16        1.98
  YS02006556           JUNCTION     0.64     1.98     8.29     0  02:16        1.95
  YS02006558           JUNCTION     0.68     2.03     8.30     0  02:16        2.01
  YS02006561           JUNCTION     0.14     1.10     7.76     0  02:16        1.10
  YS02163301           JUNCTION     0.44     1.92     8.43     0  02:20        1.92
  YS02163601           JUNCTION     0.53     2.04     8.43     0  02:19        2.01
  YS02164001           JUNCTION     0.47     1.96     8.41     0  02:19        1.93
  YSB1154              JUNCTION     0.42     1.99    11.04     0  02:25        1.98
  YSB1171              JUNCTION     0.56     1.95    10.85     0  02:12        1.95
  YSB1174              JUNCTION     0.37     1.82    10.93     0  02:25        1.82
  YSB6556              JUNCTION     0.32     1.77    10.94     0  02:25        1.77
  CC-1                 OUTFALL      0.00     0.00     0.00     0  00:00        0.00
  CC-2                 OUTFALL      0.00     0.00     0.00     0  00:00        0.00
  JK-1                 OUTFALL      0.00     0.00     0.00     0  00:00        0.00
  JK-2                 OUTFALL      0.00     0.00     0.00     0  00:00        0.00
  WSC                  OUTFALL      0.29     0.52     1.19     0  02:28        0.52
  CC-storage           STORAGE      0.44     1.55     7.05     0  03:00        1.55
  JK-storage           STORAGE      0.04     3.00     3.80     0  00:05        3.00
  XR-storage           STORAGE      7.90     9.26     7.26     0  08:00        9.26
  
  
  *******************
  Node Inflow Summary
  *******************
  
  -------------------------------------------------------------------------------------------------
                                  Maximum  Maximum                  Lateral       Total        Flow
                                  Lateral    Total  Time of Max      Inflow      Inflow     Balance
                                   Inflow   Inflow   Occurrence      Volume      Volume       Error
  Node                 Type           LPS      LPS  days hr:min    10^6 ltr    10^6 ltr     Percent
  -------------------------------------------------------------------------------------------------
  HS02004478           JUNCTION      0.00  2303.82     0  02:22           0        8.88      -0.006
  HS02004479           JUNCTION      0.00   386.25     0  02:16           0       0.875       0.093
  HS02004480           JUNCTION      0.00  2061.64     0  02:15           0        6.54       0.038
  HS02004770           JUNCTION   2003.31  2003.31     0  02:25        2.94        3.18       0.083
  HS02004777           JUNCTION      0.03   697.25     0  02:12    0.000864        1.87       0.278
  HS02004785           JUNCTION      0.15   709.22     0  02:11     0.00432        1.87       0.018
  HS02004788           JUNCTION    722.49   880.78     0  02:25        1.13           3       0.009
  HS02004792           JUNCTION   2448.69  3329.42     0  02:25        3.81        6.81      -0.003
  HS02004799           JUNCTION    453.10  1715.50     0  02:13       0.635        5.95       0.048
  HS02004802           JUNCTION      0.00  1233.25     0  02:28           0        2.51       0.159
  HS02004807           JUNCTION    565.86  1761.46     0  02:25       0.777        2.73       0.151
  HS02004817           JUNCTION      0.60  1197.00     0  02:27      0.0173        2.02       0.827
  HS02004824           JUNCTION    757.45  1335.43     0  02:26        1.38        2.23       0.017
  HS02004830           JUNCTION      0.15   578.23     0  02:26     0.00432        1.06       0.101
  HS02004837           JUNCTION    519.48   760.97     0  02:15        0.92        1.37       0.050
  HS02004842           JUNCTION      0.00   769.62     0  02:15           0       0.787       1.653
  HS02004848           JUNCTION    699.62  1025.55     0  02:15        1.35        1.91      -0.014
  HS02004852           JUNCTION      0.00  1000.71     0  02:15           0         1.7      -0.020
  HS02004856           JUNCTION    230.16  1055.83     0  02:15       0.321        2.02       0.086
  HS02004862           JUNCTION    321.57  1127.11     0  02:15        0.57        2.59      -0.001
  HS02004870           JUNCTION    307.73  1247.64     0  02:27       0.426        2.99       0.013
  HS02004876           JUNCTION    302.12  1511.46     0  02:27       0.441        3.43       0.022
  HS02004881           JUNCTION    167.00  1665.44     0  02:25       0.225        3.66       0.012
  HS02004901           JUNCTION    479.73   745.03     0  02:25       0.658        1.03       0.163
  WS02001211           JUNCTION      7.35   204.67     0  03:01       0.212        5.44       0.612
  WS02001212           JUNCTION      0.00   212.01     0  03:01           0        5.41       0.290
  WS02001213           JUNCTION      0.00   217.34     0  03:00           0        5.39       0.332
  WS02003059           JUNCTION      0.00   222.56     0  03:00           0        5.38       0.596
  WS02003060           JUNCTION     16.53  1535.05     0  02:26       0.476        14.8       0.101
  WS02003066           JUNCTION      0.00  1337.07     0  02:25           0        8.94       0.017
  WS02003067           JUNCTION      0.00  1336.49     0  02:25           0        8.95       0.050
  WS02003069           JUNCTION      0.32  1535.15     0  02:26     0.00922        14.8       0.105
  WS02003072           JUNCTION      0.00  1534.96     0  02:27           0        14.7       0.143
  WS02003073           JUNCTION      1.82  1537.01     0  02:27      0.0524        14.8       0.148
  WS02004138           JUNCTION      0.00   190.00     0  00:29           0        5.25       0.054
  WS02004139           JUNCTION      0.32   190.32     0  00:32     0.00924        5.26       0.507
  WS02004401           JUNCTION      0.00  1337.40     0  02:24           0        9.06       0.130
  WS02004402           JUNCTION      0.00  1337.67     0  02:25           0        9.05       0.125
  WS02004403           JUNCTION      0.00  1337.40     0  02:25           0        9.04       0.123
  WS02004404           JUNCTION      0.16  1338.11     0  02:25     0.00467        9.03       0.099
  WS02004405           JUNCTION      0.04  1338.05     0  02:25      0.0011        9.03       0.144
  WS02004406           JUNCTION      0.00  1337.91     0  02:25           0        9.01       0.244
  WS02004407           JUNCTION      0.00  1337.66     0  02:25           0        8.99       0.018
  WS02004409           JUNCTION      0.00  1336.47     0  02:25           0        8.98       0.038
  WS02004410           JUNCTION      0.00  1336.69     0  02:25           0        8.98       0.056
  WS02004411           JUNCTION      0.00  1336.58     0  02:25           0        8.97       0.070
  WS02004412           JUNCTION      0.00  1336.48     0  02:25           0        8.97       0.092
  WS02004413           JUNCTION      0.00  1336.52     0  02:25           0        8.96       0.158
  WS02006109           JUNCTION      1.23  1308.01     0  00:00      0.0354        8.81       0.135
  WS02006110           JUNCTION      0.00  1125.05     0  02:41           0        8.47      -0.414
  WS02006111           JUNCTION      0.00  1176.04     0  00:00           0         8.5      -0.443
  WS02006112           JUNCTION    390.04  2307.30     0  00:00        0.54        9.08      -0.003
  WS02006113           JUNCTION      0.00  1127.47     0  02:41           0        8.47      -0.535
  WS02006115           JUNCTION      0.00  2152.75     0  00:00           0        9.06       0.053
  WS02006116           JUNCTION      0.00  1337.78     0  02:25           0        9.06       0.023
  WS02006228           JUNCTION      0.00  1288.56     0  02:22           0        8.76       0.073
  WS02006229           JUNCTION      0.00  2304.78     0  02:22           0        11.2       0.094
  WS02006230           JUNCTION     10.28  1025.96     0  02:22       0.296        4.73       0.127
  WS02006231           JUNCTION      0.00   455.83     0  02:41           0        3.45      -0.139
  WS02006232           JUNCTION      0.00   453.51     0  02:31           0        3.45       0.153
  WS02006234           JUNCTION      0.00   453.20     0  02:20           0        3.45      -0.067
  WS02006235           JUNCTION      0.00   416.12     0  02:40           0        3.42       0.132
  WS02006238           JUNCTION      0.00   415.32     0  02:30           0        3.02      -0.078
  WS02006239           JUNCTION      0.00   415.08     0  02:18           0        3.02      -0.117
  WS02006240           JUNCTION      0.00   414.87     0  02:18           0        3.02       0.030
  WS02006242           JUNCTION      0.00   414.96     0  02:18           0        3.02       0.075
  WS02006243           JUNCTION      0.00   436.96     0  01:38           0        2.61      -0.051
  WS02006245           JUNCTION      0.00   462.63     0  01:37           0        2.62       0.374
  WS02006247           JUNCTION      0.00   465.25     0  01:38           0        2.62      -0.019
  WS02006248           JUNCTION      0.00   490.31     0  01:37           0        2.88      -0.023
  WS02006249           JUNCTION      0.00  1379.26     0  02:25           0        5.65       0.110
  WS02006251           JUNCTION      0.08  1708.71     0  02:25     0.00222        5.85       0.014
  WS02006252           JUNCTION      0.00   529.88     0  02:25           0        2.42      -0.431
  WS02006253           JUNCTION     43.01  1708.48     0  02:25      0.0543        3.74       0.022
  WS02006256           JUNCTION      0.00   300.00     0  01:55           0        1.35      -0.021
  WS02006280           JUNCTION      0.00  2304.00     0  02:22           0        8.87       0.007
  WS02006284           JUNCTION      0.10  2303.78     0  02:22     0.00275        8.87      -0.007
  WS02006287           JUNCTION      0.00  2305.92     0  02:22           0        8.87       0.009
  WSF200               JUNCTION      0.00  1337.15     0  02:25           0        8.94       0.009
  YS02001580           JUNCTION      0.00    73.26     0  02:10           0     0.00408       2.574
  YS02001583           JUNCTION      0.00   121.21     0  02:10           0      0.0154      -4.455
  YS02001586           JUNCTION    876.79   877.07     0  02:26         1.8        1.81       0.048
  YS02001590           JUNCTION      0.00   323.16     0  02:41           0        1.36      -0.034
  YS02001593           JUNCTION      0.00   326.52     0  02:41           0        1.36       0.014
  YS02001596           JUNCTION      0.00   318.50     0  02:41           0        1.36      -0.009
  YS02001600           JUNCTION      0.00   318.73     0  02:41           0        1.36       0.015
  YS02001601           JUNCTION   1535.31  1852.86     0  02:25        2.49        3.85       0.016
  YS02001602           JUNCTION      0.00   492.38     0  02:09           0        2.34       0.019
  YS02001605           JUNCTION      0.00   492.98     0  02:09           0        2.23       0.026
  YS02001607           JUNCTION      0.00   493.42     0  02:09           0        2.23       0.091
  YS02001610           JUNCTION      0.00   879.11     0  02:26           0        2.54       0.089
  YS02001613           JUNCTION      0.00   544.02     0  02:26           0        2.08       0.083
  YS02001616           JUNCTION      0.00   543.07     0  02:26           0        2.08       0.023
  YS02001619           JUNCTION   1562.34  1562.34     0  02:26        2.89        4.66       0.005
  YS02001622           JUNCTION      0.00  1026.74     0  02:25           0        4.36       0.007
  YS02001625           JUNCTION      0.00  1449.49     0  02:26           0        4.57       0.190
  YS02001629           JUNCTION      0.00   935.05     0  02:15           0        3.71       0.022
  YS02001633           JUNCTION   1156.56  1371.33     0  02:15        1.82        5.26       0.065
  YS02001641           JUNCTION      0.00  1369.72     0  02:15           0           5       0.057
  YS02001644           JUNCTION   1035.44  1764.46     0  02:15        1.58        6.57       0.047
  YS02001647           JUNCTION      0.00  1764.05     0  02:15           0        6.15       0.007
  YS02001649           JUNCTION      0.00  2042.70     0  02:16           0        7.59       0.006
  YS02001652           JUNCTION      0.00  1038.03     0  02:25           0        1.44      -0.066
  YS02001655           JUNCTION      0.15  1038.08     0  02:25     0.00443        1.44       0.029
  YS02001658           JUNCTION      0.00  1037.83     0  02:25           0        1.44      -0.011
  YS02001661           JUNCTION      0.00  1037.33     0  02:25           0        1.44       0.015
  YS02001664           JUNCTION   1022.69  1022.69     0  02:25        1.44        1.44      -0.004
  YS02001745           JUNCTION    641.96   641.96     0  02:25       0.871       0.871       0.155
  YS02001748           JUNCTION      0.04   650.33     0  02:25      0.0013       0.871      -0.252
  YS02001751           JUNCTION      0.01   650.68     0  02:25    0.000317       0.875       0.080
  YS02001754           JUNCTION      0.26   650.96     0  02:25     0.00749       0.886      -0.117
  YS02001757           JUNCTION      0.00  3589.82     0  02:24           0        11.3       0.034
  YS02001759           JUNCTION    893.23  1477.87     0  02:24         1.2        2.85      -0.004
  YS02001762           JUNCTION      0.00   818.16     0  02:30           0        1.65       0.004
  YS02001765           JUNCTION      0.00   816.81     0  02:30           0        1.65       0.003
  YS02001767           JUNCTION      0.54   816.88     0  02:30      0.0154        1.65       0.004
  YS02001770           JUNCTION   1259.41  1259.41     0  02:25        1.83        1.88      -0.003
  YS02001774           JUNCTION      0.00   680.45     0  02:25           0       0.266       0.445
  YS02001779           JUNCTION      0.01   680.94     0  02:25    0.000144        0.22      -0.292
  YS02001783           JUNCTION      0.00  1165.87     0  02:23           0        4.14       0.006
  YS02001784           JUNCTION      1.06  1167.19     0  02:23      0.0305        4.17       0.013
  YS02001786           JUNCTION      0.06  1166.94     0  02:23     0.00162        4.17       0.016
  YS02001788           JUNCTION      0.07  1167.16     0  02:23     0.00204        4.17       0.007
  YS02001790           JUNCTION      0.15  1180.41     0  02:23     0.00446        4.17       0.017
  YS02001791           JUNCTION      0.00  1294.74     0  02:24           0        4.17      -0.018
  YS02001793           JUNCTION      0.00  1259.81     0  02:25           0        4.17       0.004
  YS02001882           JUNCTION      0.00    40.72     0  02:13           0      0.0127       5.372
  YS02001884           JUNCTION      0.00    45.43     0  02:12           0      0.0485       5.450
  YS02001887           JUNCTION    954.71   955.50     0  02:25        1.26        1.29       0.348
  YS02001890           JUNCTION      0.00   954.86     0  02:25           0        1.25       0.402
  YS02001895           JUNCTION      0.00   517.61     0  02:27           0        1.11       0.144
  YS02001898           JUNCTION      0.00   517.74     0  02:27           0        1.11       0.037
  YS02001901           JUNCTION      0.00   518.07     0  02:27           0        1.11       0.287
  YS02001904           JUNCTION      0.00   517.65     0  02:27           0        1.11       0.269
  YS02001907           JUNCTION      0.00  2305.23     0  02:25           0        3.87       0.451
  YS02001910           JUNCTION      0.00  1666.57     0  02:25           0        2.74       0.262
  YS02001915           JUNCTION   1115.08  1666.19     0  02:25        1.74        2.77       0.061
  YS02001918           JUNCTION      0.00   555.81     0  02:25           0        1.05       0.014
  YS02001920           JUNCTION      2.87   555.54     0  02:25      0.0827        1.03       0.097
  YS02001923           JUNCTION      0.04   552.95     0  02:25     0.00109       0.939      -0.035
  YS02001926           JUNCTION      0.05   552.88     0  02:25      0.0015       0.925       0.021
  YS02001929           JUNCTION    542.94   542.94     0  02:26       0.918       0.918      -0.056
  YS02006553           JUNCTION      0.00   803.56     0  02:39           0        2.38       0.509
  YS02006556           JUNCTION      0.00   805.23     0  02:41           0        2.38       0.343
  YS02006558           JUNCTION   1293.64  1293.64     0  02:25        1.84        4.18       0.089
  YS02006561           JUNCTION      0.00  1165.96     0  02:23           0        4.14      -0.002
  YS02163301           JUNCTION      0.00   936.65     0  02:15           0         3.7       0.041
  YS02163601           JUNCTION      0.11  1371.13     0  02:15     0.00317           5       0.100
  YS02164001           JUNCTION      0.00  1370.82     0  02:15           0        4.99       0.050
  YSB1154              JUNCTION    519.45   519.45     0  02:25       0.758       0.759       0.193
  YSB1171              JUNCTION      0.00  1205.17     0  02:25           0        1.48       0.404
  YSB1174              JUNCTION    448.99   448.99     0  02:25       0.578       0.579       0.215
  YSB6556              JUNCTION      0.00   519.37     0  02:25           0        0.76       0.164
  CC-1                 OUTFALL       0.00   683.00     0  00:05           0        6.42       0.000
  CC-2                 OUTFALL       0.00   683.00     0  00:05           0        5.78       0.000
  JK-1                 OUTFALL       0.00  1000.00     0  00:05           0        2.94       0.000
  JK-2                 OUTFALL       0.00  1000.00     0  02:14           0        2.62       0.000
  WSC                  OUTFALL       0.00  1537.64     0  02:28           0        14.7       0.000
  CC-storage           STORAGE       0.00  3589.23     0  02:24           0        13.6      -6.219
  JK-storage           STORAGE       0.00  1308.57     0  02:25           0        4.32     -37.326
  XR-storage           STORAGE     200.00   200.00     0  00:00        5.76        6.36       0.001
  
  
  **********************
  Node Surcharge Summary
  **********************
  
  Surcharging occurs when water rises above the top of the highest conduit.
  ---------------------------------------------------------------------
                                               Max. Height   Min. Depth
                                   Hours       Above Crown    Below Rim
  Node                 Type      Surcharged         Meters       Meters
  ---------------------------------------------------------------------
  HS02004478           JUNCTION        0.51          0.667        0.273
  HS02004479           JUNCTION        0.64          0.906        0.144
  HS02004480           JUNCTION        0.68          0.971        0.129
  HS02004770           JUNCTION        0.58          0.720        0.000
  HS02004777           JUNCTION        0.59          0.780        0.000
  HS02004785           JUNCTION        0.54          0.790        0.000
  HS02004788           JUNCTION        0.53          0.720        0.000
  HS02004792           JUNCTION        0.65          0.900        0.000
  HS02004799           JUNCTION        0.78          1.060        0.000
  HS02004802           JUNCTION        0.69          1.091        0.119
  HS02004807           JUNCTION        0.67          1.220        0.000
  HS02004817           JUNCTION        1.24          1.740        0.000
  HS02004824           JUNCTION        0.53          1.310        0.000
  HS02004830           JUNCTION        0.50          1.330        0.000
  HS02004837           JUNCTION        0.46          1.340        0.000
  HS02004842           JUNCTION        0.60          1.520        0.000
  HS02004848           JUNCTION        0.42          1.370        0.000
  HS02004852           JUNCTION        0.44          1.420        0.000
  HS02004856           JUNCTION        0.42          1.300        0.000
  HS02004862           JUNCTION        0.46          1.300        0.000
  HS02004870           JUNCTION        0.48          1.317        0.083
  HS02004876           JUNCTION        0.53          1.420        0.140
  HS02004881           JUNCTION        0.51          1.294        0.156
  HS02004901           JUNCTION        0.59          0.720        0.000
  WS02004401           JUNCTION        1.67          0.967        0.693
  WS02004402           JUNCTION        1.69          0.900        0.840
  WS02004403           JUNCTION        1.69          0.826        1.204
  WS02004404           JUNCTION        1.74          0.828        1.952
  WS02004405           JUNCTION        1.73          0.774        2.026
  WS02004406           JUNCTION        1.72          0.653        1.797
  WS02004409           JUNCTION        1.06          0.481        1.879
  WS02004410           JUNCTION        1.03          0.329        2.211
  WS02004411           JUNCTION        0.92          0.227        2.303
  WS02004412           JUNCTION        0.82          0.120        2.190
  WS02004413           JUNCTION        1.38          0.154        2.046
  WS02006109           JUNCTION        2.03          1.820        0.000
  WS02006110           JUNCTION        1.80          1.519        0.331
  WS02006111           JUNCTION        1.31          1.075        0.795
  WS02006112           JUNCTION        1.92          1.680        0.000
  WS02006113           JUNCTION        1.35          1.090        0.840
  WS02006115           JUNCTION        1.47          1.065        1.185
  WS02006116           JUNCTION        1.48          1.005        1.285
  WS02006228           JUNCTION        2.03          2.200        0.000
  WS02006229           JUNCTION        0.95          1.053        0.017
  WS02006230           JUNCTION        1.73          1.570        0.000
  WS02006231           JUNCTION        1.74          1.510        0.020
  WS02006232           JUNCTION        1.91          1.480        0.000
  WS02006234           JUNCTION        1.76          1.240        0.000
  WS02006235           JUNCTION        1.77          1.290        0.000
  WS02006238           JUNCTION        1.78          1.360        0.070
  WS02006239           JUNCTION        1.75          1.236        0.054
  WS02006240           JUNCTION        1.74          1.063        0.327
  WS02006242           JUNCTION        1.74          0.820        0.000
  WS02006243           JUNCTION        1.65          0.770        0.000
  WS02006245           JUNCTION        1.62          0.850        0.000
  WS02006247           JUNCTION        1.62          0.594        0.166
  WS02006248           JUNCTION        1.57          0.380        0.000
  WS02006249           JUNCTION        1.57          0.390        0.000
  WS02006251           JUNCTION        1.39          1.180        0.000
  WS02006252           JUNCTION        1.51          1.100        0.000
  WS02006253           JUNCTION        1.39          2.269        0.211
  WS02006256           JUNCTION        7.44          2.050        0.000
  WS02006280           JUNCTION        0.81          0.705        0.075
  WS02006284           JUNCTION        0.71          0.668        0.132
  WS02006287           JUNCTION        0.61          0.739        0.151
  YS02001580           JUNCTION        0.64          0.450        0.000
  YS02001583           JUNCTION        0.65          0.500        0.000
  YS02001586           JUNCTION        0.74          0.510        0.000
  YS02001590           JUNCTION        0.82          0.750        0.000
  YS02001593           JUNCTION        0.82          0.737        0.103
  YS02001596           JUNCTION        0.94          0.981        0.089
  YS02001600           JUNCTION        1.09          1.190        0.000
  YS02001601           JUNCTION        1.44          1.440        0.000
  YS02001602           JUNCTION        1.33          1.270        0.000
  YS02001605           JUNCTION        1.27          1.180        0.000
  YS02001607           JUNCTION        0.77          0.658        0.022
  YS02001610           JUNCTION        0.80          0.680        0.000
  YS02001613           JUNCTION        0.77          0.700        0.000
  YS02001616           JUNCTION        0.73          0.610        0.000
  YS02001619           JUNCTION        0.71          0.610        0.000
  YS02001622           JUNCTION        0.70          0.582        0.038
  YS02001625           JUNCTION        0.91          0.780        0.000
  YS02001629           JUNCTION        0.63          0.470        0.000
  YS02001633           JUNCTION        0.93          0.988        0.072
  YS02001641           JUNCTION        0.83          0.946        0.154
  YS02001644           JUNCTION        0.78          0.920        0.000
  YS02001647           JUNCTION        0.51          0.775        0.125
  YS02001649           JUNCTION        0.61          0.996        0.054
  YS02001652           JUNCTION        0.42          0.804        0.326
  YS02001655           JUNCTION        0.30          0.704        0.496
  YS02001658           JUNCTION        0.19          0.793        0.507
  YS02001661           JUNCTION        0.05          0.115        1.275
  YS02001748           JUNCTION        0.12          0.652        0.538
  YS02001751           JUNCTION        0.21          0.921        0.279
  YS02001754           JUNCTION        0.31          0.902        0.248
  YS02001757           JUNCTION        0.69          1.031        0.179
  YS02001759           JUNCTION        0.54          1.030        0.180
  YS02001762           JUNCTION        0.51          1.013        0.137
  YS02001765           JUNCTION        0.48          0.971        0.129
  YS02001767           JUNCTION        0.45          0.955        0.075
  YS02001770           JUNCTION        0.42          0.920        0.000
  YS02001774           JUNCTION        0.49          1.000        0.050
  YS02001779           JUNCTION        0.32          0.680        0.000
  YS02001783           JUNCTION        0.56          0.534        1.066
  YS02001784           JUNCTION        0.53          0.376        1.114
  YS02001786           JUNCTION        0.42          0.115        1.315
  YS02001882           JUNCTION        0.50          0.707        0.123
  YS02001884           JUNCTION        0.51          0.735        0.135
  YS02001887           JUNCTION        0.55          0.793        0.157
  YS02001890           JUNCTION        0.56          0.760        0.000
  YS02001895           JUNCTION        0.49          0.567        0.183
  YS02001898           JUNCTION        0.48          0.541        0.199
  YS02001901           JUNCTION        0.53          0.687        0.183
  YS02001904           JUNCTION        0.52          0.639        0.211
  YS02001907           JUNCTION        0.81          0.950        0.000
  YS02001910           JUNCTION        0.59          0.988        0.112
  YS02001915           JUNCTION        0.50          0.941        0.059
  YS02001918           JUNCTION        0.41          0.810        0.000
  YS02001920           JUNCTION        0.43          1.140        0.000
  YS02001923           JUNCTION        0.13          0.820        0.000
  YS02001926           JUNCTION        0.17          0.900        0.000
  YS02001929           JUNCTION        0.01          0.780        0.000
  YS02006553           JUNCTION        0.83          0.992        0.198
  YS02006556           JUNCTION        0.69          0.941        0.409
  YS02006558           JUNCTION        0.67          0.935        0.465
  YS02006561           JUNCTION        0.38          0.304        0.846
  YS02163301           JUNCTION        0.90          0.915        0.115
  YS02163601           JUNCTION        0.96          1.035        0.045
  YS02164001           JUNCTION        0.84          0.955        0.145
  YSB1154              JUNCTION        0.91          1.286        0.114
  YSB1171              JUNCTION        0.91          1.100        0.000
  YSB1174              JUNCTION        0.83          1.122        0.128
  YSB6556              JUNCTION        0.75          1.071        0.029
  
  
  *********************
  Node Flooding Summary
  *********************
  
  Flooding refers to all water that overflows a node, whether it ponds or not.
  --------------------------------------------------------------------------
                                                             Total   Maximum
                                 Maximum   Time of Max       Flood    Ponded
                        Hours       Rate    Occurrence      Volume     Depth
  Node                 Flooded       LPS   days hr:min    10^6 ltr    Meters
  --------------------------------------------------------------------------
  HS02004770              0.42   1580.15      0  02:25       0.938     0.000
  HS02004777              0.01     42.82      0  02:12       0.000     0.000
  HS02004785              0.01     65.88      0  02:12       0.000     0.000
  HS02004788              0.01    172.04      0  02:12       0.001     0.000
  HS02004792              0.40   2186.99      0  02:25       1.497     0.000
  HS02004799              0.23    290.75      0  02:25       0.133     0.000
  HS02004807              0.14    529.31      0  02:25       0.176     0.000
  HS02004817              0.01      7.98      0  02:15       0.000     0.000
  HS02004824              0.08    139.33      0  02:26       0.028     0.000
  HS02004830              0.01     21.28      0  02:15       0.000     0.000
  HS02004837              0.01     88.54      0  02:15       0.000     0.000
  HS02004842              0.08    165.35      0  02:15       0.024     0.000
  HS02004848              0.01    319.60      0  02:15       0.001     0.000
  HS02004852              0.01    298.33      0  02:15       0.000     0.000
  HS02004856              0.01     88.61      0  02:15       0.000     0.000
  HS02004862              0.07    285.25      0  02:15       0.024     0.000
  HS02004901              0.48    744.91      0  02:25       0.791     0.000
  WS02006109              0.45    340.98      0  02:25       0.300     0.000
  WS02006112              0.01   1153.65      0  00:00       0.035     0.000
  WS02006228              0.01      1.27      0  02:15       0.000     0.000
  WS02006230              0.72    573.57      0  02:22       1.011     0.000
  WS02006232              0.21      4.52      0  02:41       0.000     0.000
  WS02006234              0.81    128.87      0  02:17       0.303     0.000
  WS02006235              0.01     21.55      0  02:55       0.000     0.000
  WS02006242              0.91    137.33      0  02:19       0.409     0.000
  WS02006243              0.01     58.32      0  01:38       0.000     0.000
  WS02006245              0.01      0.20      0  02:41       0.000     0.000
  WS02006248              1.24    339.65      0  02:05       1.260     0.000
  WS02006249              1.41   1318.38      0  02:25       3.765     0.000
  WS02006251              0.01     23.98      0  02:15       0.000     0.000
  WS02006252              0.31    529.78      0  02:25       0.330     0.000
  WS02006256              1.05    286.51      0  01:55       0.678     0.000
  YS02001580              0.01     30.88      0  02:10       0.000     0.000
  YS02001583              0.01     54.64      0  02:10       0.000     0.000
  YS02001586              0.51    559.45      0  02:26       0.443     0.000
  YS02001590              0.01      7.69      0  02:10       0.000     0.000
  YS02001600              0.01      5.27      0  02:41       0.000     0.000
  YS02001601              0.67   1455.00      0  02:25       1.508     0.000
  YS02001602              0.51     61.94      0  02:26       0.105     0.000
  YS02001605              0.01      1.68      0  02:41       0.000     0.000
  YS02001610              0.45    878.71      0  02:26       0.760     0.000
  YS02001613              0.01      6.48      0  02:41       0.000     0.000
  YS02001616              0.01     16.00      0  02:41       0.000     0.000
  YS02001619              0.01     20.36      0  02:41       0.000     0.000
  YS02001625              0.41   1449.32      0  02:26       1.121     0.000
  YS02001629              0.16    144.64      0  02:25       0.045     0.000
  YS02001644              0.18   1209.67      0  02:25       0.408     0.000
  YS02001770              0.01      5.05      0  02:20       0.000     0.000
  YS02001779              0.16    680.79      0  02:25       0.200     0.000
  YS02001890              0.20    438.57      0  02:25       0.136     0.000
  YS02001907              0.36   2304.55      0  02:25       1.498     0.000
  YS02001918              0.01    106.34      0  02:16       0.001     0.000
  YS02001920              0.01     22.17      0  02:16       0.000     0.000
  YS02001923              0.01    101.09      0  02:16       0.000     0.000
  YS02001926              0.01     38.05      0  02:16       0.000     0.000
  YS02001929              0.01    210.59      0  02:16       0.000     0.000
  YSB1171                 0.32   1204.78      0  02:25       0.742     0.000
  
  
  **********************
  Storage Volume Summary
  **********************
  
  ------------------------------------------------------------------------------------------------
                         Average    Avg   Evap  Exfil     Maximum    Max    Time of Max    Maximum
                          Volume   Pcnt   Pcnt   Pcnt      Volume   Pcnt     Occurrence    Outflow
  Storage Unit           1000 m   Full   Loss   Loss     1000 m   Full    days hr:min        LPS
  ------------------------------------------------------------------------------------------------
  CC-storage               1.219   19.0    0.0    0.0       4.322   67.4       0  03:00    1566.00
  JK-storage               0.002    0.7    0.0    0.0       0.151   51.7       0  00:05    2300.00
  XR-storage               0.948   65.9    0.0    0.0       1.111   77.1       0  08:00     190.00
  
  
  ***********************
  Outfall Loading Summary
  ***********************
  
  -----------------------------------------------------------
                         Flow       Avg       Max       Total
                         Freq      Flow      Flow      Volume
  Outfall Node           Pcnt       LPS       LPS    10^6 ltr
  -----------------------------------------------------------
  CC-1                  50.23    602.56    683.00       6.417
  CC-2                  80.33    375.86    683.00       5.777
  JK-1                  76.75    158.83   1000.00       2.935
  JK-2                  51.48    230.40   1000.00       2.616
  WSC                   99.99    594.12   1537.64      14.746
  -----------------------------------------------------------
  System                71.76   1961.77   4174.79      32.490
  
  
  ********************
  Link Flow Summary
  ********************
  
  -----------------------------------------------------------------------------
                                 Maximum  Time of Max   Maximum    Max/    Max/
                                  |Flow|   Occurrence   |Veloc|    Full    Full
  Link                 Type          LPS  days hr:min     m/sec    Flow   Depth
  -----------------------------------------------------------------------------
  1                    CONDUIT   1537.64     0  02:28      3.72    0.54    0.52
  HS02004478WS02006287 CONDUIT   2305.92     0  02:22      2.57    0.65    1.00
  HS02004479HS02004480 CONDUIT    387.36     0  02:16      0.55    0.37    1.00
  HS02004480HS02004478 CONDUIT   2061.97     0  02:15      2.95    8.68    1.00
  HS02004770HS02004777 CONDUIT    697.22     0  02:12      1.00    1.28    1.00
  HS02004777HS02004785 CONDUIT    709.07     0  02:11      1.07    0.87    1.00
  HS02004785HS02004788 CONDUIT    629.31     0  02:13      1.35    4.74    1.00
  HS02004788HS02004792 CONDUIT    880.72     0  02:25      1.45    0.58    1.00
  HS02004792HS02004799 CONDUIT   1569.79     0  02:13      2.24    0.96    1.00
  HS02004799HS02004480 CONDUIT   1714.94     0  02:13      2.45    2.17    1.00
  HS02004802HS02004478 CONDUIT   1233.31     0  02:28      1.76    1.09    1.00
  HS02004807HS02004802 CONDUIT   1233.25     0  02:28      1.76    2.35    1.00
  HS02004817HS02004807 CONDUIT   1197.03     0  02:27      1.71    0.71    1.00
  HS02004817HS02004824 CONDUIT   1196.40     0  02:27      1.71    0.54    1.00
  HS02004824HS02004830 CONDUIT    578.37     0  02:26      0.83    0.76    1.00
  HS02004830HS02004837 CONDUIT    578.08     0  02:26      0.89    0.58    1.00
  HS02004837HS02004842 CONDUIT    769.62     0  02:15      1.10    0.46    1.00
  HS02004842HS02004848 CONDUIT    770.12     0  02:15      1.18    0.45    1.00
  HS02004848HS02004852 CONDUIT   1000.71     0  02:15      1.55    1.13    1.00
  HS02004852HS02004856 CONDUIT    969.00     0  02:15      1.44    1.11    1.00
  HS02004856HS02004862 CONDUIT   1011.64     0  02:15      1.67    1.01    1.00
  HS02004862HS02004870 CONDUIT   1089.72     0  02:15      1.87    1.18    1.00
  HS02004870HS02004876 CONDUIT   1248.43     0  02:27      1.78    0.83    1.00
  HS02004876HS02004881 CONDUIT   1511.42     0  02:27      2.41   16.08    1.00
  HS02004881HS02006253 CONDUIT   1665.47     0  02:25      2.38    0.33    1.00
  HS02004901HS02004770 CONDUIT    265.79     0  02:37      0.38    1.00    1.00
  WS02001211WS02001212 CONDUIT    212.01     0  03:01      0.54    0.16    0.70
  WS02001212WS02001213 CONDUIT    217.34     0  03:00      1.03    0.34    0.57
  WS02001213WS02003059 CONDUIT    222.56     0  03:00      0.47    0.37    0.90
  WS02003059WS02003060 CONDUIT    229.78     0  03:19      0.66    0.15    0.82
  WS02003060WS02003069 CONDUIT   1534.83     0  02:26      2.09    0.60    0.62
  WS02003066WSF200     CONDUIT   1337.15     0  02:25      3.26    0.23    0.39
  WS02003067WS02003066 CONDUIT   1337.07     0  02:25      2.03    0.43    0.56
  WS02003069WS02003072 CONDUIT   1534.96     0  02:27      1.91    0.74    0.67
  WS02003072WS02003073 CONDUIT   1535.19     0  02:27      2.07    3.32    0.62
  WS02004138WS02004139 CONDUIT    190.00     0  00:32      2.17    0.04    0.42
  WS02004139WS02001211 CONDUIT    197.32     0  03:01      0.55    0.25    0.61
  WS02004401WS02004402 CONDUIT   1337.67     0  02:25      2.07    1.61    1.00
  WS02004402WS02004403 CONDUIT   1337.40     0  02:25      1.84    1.92    1.00
  WS02004403WS02004404 CONDUIT   1337.95     0  02:25      1.70    0.97    1.00
  WS02004404WS02004405 CONDUIT   1338.01     0  02:25      1.86   13.11    1.00
  WS02004405WS02004406 CONDUIT   1337.91     0  02:25      1.80    2.64    1.00
  WS02004406WS02004407 CONDUIT   1337.66     0  02:25      1.72    0.60    1.00
  WS02004407WS02004409 CONDUIT   1336.47     0  02:25      1.80    0.47    1.00
  WS02004409WS02004410 CONDUIT   1336.69     0  02:25      1.70    1.73    1.00
  WS02004410WS02004411 CONDUIT   1336.58     0  02:25      1.70    1.83    1.00
  WS02004411WS02004412 CONDUIT   1336.48     0  02:25      1.70    1.90    1.00
  WS02004412WS02004413 CONDUIT   1336.52     0  02:25      1.70    0.90    1.00
  WS02004413WS02003067 CONDUIT   1336.49     0  02:25      2.06    0.57    0.77
  WS02006109WS02006110 CONDUIT   1306.78     0  00:00      3.15    2.51    1.00
  WS02006110WS02006113 CONDUIT   1127.47     0  02:41      2.24    1.03    1.00
  WS02006111WS02006112 CONDUIT   2307.30     0  00:00      9.18    1.10    1.00
  WS02006112WS02006115 CONDUIT   2152.75     0  00:00      2.85    1.27    1.00
  WS02006113WS02006111 CONDUIT   1176.04     0  00:00      2.70    1.41    1.00
  WS02006115WS02006116 CONDUIT   1337.78     0  02:25      1.81    1.72    1.00
  WS02006116WS02004401 CONDUIT   1337.40     0  02:24      2.21    1.84    1.00
  WS02006228WS02006109 CONDUIT   1288.24     0  02:22      2.56    5.63    1.00
  WS02006229WS02006228 CONDUIT   1288.56     0  02:22      2.56    4.27    1.00
  WS02006230WS02006229 CONDUIT   1015.68     0  02:22      2.64   22.60    1.00
  WS02006231WS02006230 CONDUIT    455.83     0  02:41      1.29    6.91    1.00
  WS02006232WS02006231 CONDUIT    453.51     0  02:31      1.18    0.95    1.00
  WS02006234WS02006232 CONDUIT    453.20     0  02:20      1.18    0.92    1.00
  WS02006235WS02006234 CONDUIT    419.28     0  01:39      1.09    4.42    1.00
  WS02006238WS02006235 CONDUIT    415.32     0  02:30      1.23    0.93    1.00
  WS02006239WS02006238 CONDUIT    415.08     0  02:18      1.08    1.33    1.00
  WS02006240WS02006239 CONDUIT    414.87     0  02:18      1.09    1.31    1.00
  WS02006242WS02006240 CONDUIT    414.96     0  02:18      1.08    1.65    1.00
  WS02006243WS02006242 CONDUIT    386.20     0  01:38      1.15    0.83    1.00
  WS02006245WS02006243 CONDUIT    436.96     0  01:38      1.42    1.29    1.00
  WS02006247WS02006245 CONDUIT    462.63     0  01:37      1.48    3.67    1.00
  WS02006248WS02006247 CONDUIT    465.25     0  01:38      1.37    1.01    1.00
  WS02006249WS02006248 CONDUIT    490.31     0  01:37      1.44    2.69    1.00
  WS02006251WS02006249 CONDUIT   1379.26     0  02:25      3.58    3.98    1.00
  WS02006252WS02006251 CONDUIT   1298.45     0  00:05     20.66    4.77    1.00
  WS02006253WS02006251 CONDUIT   1708.63     0  02:25      4.44    5.12    1.00
  WS02006256WS02006235 CONDUIT    207.19     0  01:45      2.93    2.19    1.00
  WS02006280WS02006229 CONDUIT   2304.78     0  02:22      4.02    0.49    1.00
  WS02006284WS02006280 CONDUIT   2304.00     0  02:22      3.02    0.96    1.00
  WS02006287WS02006284 CONDUIT   2303.69     0  02:22      2.93    1.07    1.00
  WSF200WS02003060     CONDUIT   1337.06     0  02:25      2.31    0.30    0.51
  YS02001580YS02001583 CONDUIT     73.26     0  02:10      0.52    0.28    1.00
  YS02001583YS02001586 CONDUIT    121.21     0  02:10      0.53    0.18    1.00
  YS02001586YS02001590 CONDUIT    323.16     0  02:41      1.25    0.57    1.00
  YS02001590YS02001593 CONDUIT    326.52     0  02:41      1.15    2.05    1.00
  YS02001593YS02001596 CONDUIT    318.50     0  02:41      1.77    0.50    1.00
  YS02001596YS02001600 CONDUIT    318.73     0  02:41      1.28    0.62    1.00
  YS02001600YS02001601 CONDUIT    317.89     0  02:33      1.12    0.55    1.00
  YS02001601YS02001602 CONDUIT    492.38     0  02:09      1.74    1.78    1.00
  YS02001602YS02001605 CONDUIT    492.98     0  02:09      1.74   10.43    1.00
  YS02001605YS02001607 CONDUIT    493.42     0  02:09      1.75    2.71    1.00
  YS02001607YS02001610 CONDUIT    495.21     0  02:09      0.63    0.47    1.00
  YS02001610YS02001613 CONDUIT    543.30     0  02:26      0.69    0.63    1.00
  YS02001613YS02001616 CONDUIT    544.02     0  02:26      0.69    0.47    1.00
  YS02001616YS02001619 CONDUIT    543.07     0  02:26      0.69    0.94    1.00
  YS02001619YS02001622 CONDUIT   1026.74     0  02:25      1.31    1.51    1.00
  YS02001622YS02001625 CONDUIT   1027.07     0  02:25      1.31    0.55    1.00
  YS02001625YS02001629 CONDUIT    935.05     0  02:15      1.19    0.44    1.00
  YS02001629YS02163301 CONDUIT    936.65     0  02:15      1.19    1.15    1.00
  YS02001633YS02163601 CONDUIT   1371.02     0  02:15      1.75    1.44    1.00
  YS02001641YS02001644 CONDUIT   1369.38     0  02:15      1.74    4.43    1.00
  YS02001644YS02001647 CONDUIT   1764.05     0  02:15      2.25    1.04    1.00
  YS02001647YS02001649 CONDUIT   1783.48     0  02:15      2.30    0.94    1.00
  YS02001649YS02001757 CONDUIT   2042.05     0  02:16      2.60    1.24    1.00
  YS02001652YS02001649 CONDUIT   1038.63     0  02:25      1.32    0.51    1.00
  YS02001655YS02001652 CONDUIT   1038.03     0  02:25      1.32    0.50    1.00
  YS02001658YS02001655 CONDUIT   1037.93     0  02:25      1.81    0.44    1.00
  YS02001661YS02001658 CONDUIT   1037.83     0  02:25      2.28    0.41    1.00
  YS02001664YS02001661 CONDUIT   1037.33     0  02:25      2.28    0.33    0.82
  YS02001745YS02001748 CONDUIT    650.28     0  02:25      2.14    0.25    0.91
  YS02001748YS02001751 CONDUIT    650.67     0  02:25      1.63    0.33    1.00
  YS02001751YS02001754 CONDUIT    650.70     0  02:25      1.30    0.31    1.00
  YS02001754YS02001757 CONDUIT    650.93     0  02:25      0.83    0.26    1.00
  YS02001757CaochengTiaoxuchi CONDUIT   3589.23     0  02:24      6.38    1.55    1.00
  YS02001759YS02001757 CONDUIT   1478.59     0  02:24      1.88    1.05    1.00
  YS02001762YS02001759 CONDUIT    819.06     0  02:30      1.04    0.94    1.00
  YS02001765YS02001762 CONDUIT    818.16     0  02:30      1.04    0.77    1.00
  YS02001767YS02001765 CONDUIT    816.81     0  02:30      1.04    1.03    1.00
  YS02001770YS02001767 CONDUIT    816.35     0  02:30      1.04    3.23    1.00
  YS02001774YS02001770 CONDUIT    680.45     0  02:25      0.87    0.43    1.00
  YS02001779YS02001774 CONDUIT    680.94     0  02:25      0.87    0.34    1.00
  YS02001783YS02001784 CONDUIT   1166.13     0  02:23      2.32    1.61    1.00
  YS02001784YS02001785 CONDUIT   1166.88     0  02:23      2.32    2.72    1.00
  YS02001786YS02001788 CONDUIT   1167.08     0  02:23      2.49    2.25    0.89
  YS02001788YS02001790 CONDUIT   1180.25     0  02:23      2.72    0.87    0.84
  YS02001790YS02001791 CONDUIT   1294.74     0  02:24      3.43    1.41    0.71
  YS02001791YS02001793 CONDUIT   1259.81     0  02:25      6.77    0.54    0.43
  YS02001793JiankangQianchi CONDUIT   1308.57     0  02:25     24.92    0.10    0.50
  YS02001882YS02001884 CONDUIT     40.72     0  02:13      0.12    0.05    1.00
  YS02001884YS02001887 CONDUIT     45.43     0  02:12      0.09    0.06    1.00
  YS02001887YS02001890 CONDUIT    954.86     0  02:25      1.22    1.63    1.00
  YS02001890YS02001895 CONDUIT    517.61     0  02:27      0.66    0.24    1.00
  YS02001895YS02001898 CONDUIT    517.74     0  02:27      0.66    0.90    1.00
  YS02001898YS02001901 CONDUIT    518.07     0  02:27      0.66    0.33    1.00
  YS02001901YS02001904 CONDUIT    517.65     0  02:27      0.66    0.80    1.00
  YS02001904YS02001907 CONDUIT    518.72     0  02:26      0.66    0.18    1.00
  YS02001907YS02006553 CONDUIT    803.56     0  02:39      0.89    0.95    1.00
  YS02001910YS02001907 CONDUIT   1666.58     0  02:25      2.12    0.94    1.00
  YS02001915YS02001910 CONDUIT   1666.57     0  02:25      2.12    0.83    1.00
  YS02001918YS02001915 CONDUIT    556.22     0  02:25      0.71    0.31    1.00
  YS02001920YS02001918 CONDUIT    555.81     0  02:25      0.71    0.54    1.00
  YS02001923YS02001920 CONDUIT    552.67     0  02:25      0.70    0.25    1.00
  YS02001926YS02001923 CONDUIT    552.91     0  02:25      0.94    0.79    1.00
  YS02001929YS02001926 CONDUIT    552.82     0  02:25      1.08    0.26    1.00
  YS02006553YS02006556 CONDUIT    805.23     0  02:41      1.03    0.69    1.00
  YS02006556YS02006558 CONDUIT    807.10     0  02:41      1.03    0.64    1.00
  YS02006558YS02006561 CONDUIT   1165.96     0  02:23      4.12    2.58    1.00
  YS02006561YS02001783 CONDUIT   1165.87     0  02:23      2.32    0.60    1.00
  YS02163301YS02001633 CONDUIT    937.13     0  02:15      1.19    0.88    1.00
  YS02163601YS02164001 CONDUIT   1370.82     0  02:15      1.75    1.21    1.00
  YS02164001YS02001641 CONDUIT   1369.72     0  02:15      1.74    1.87    1.00
  YSB1154YSB6556       CONDUIT    519.37     0  02:25      1.35    0.93    1.00
  YSB1171HS02004479    CONDUIT    386.25     0  02:16      0.77    0.26    1.00
  YSB1174YSB1171       CONDUIT    448.99     0  02:25      1.17    0.69    1.00
  YSB6556YSB1171       CONDUIT    520.02     0  02:25      1.35    0.54    1.00
  CC-R1                PUMP       683.00     0  00:05              1.00
  CC-R2                PUMP       683.00     0  00:05              1.00
  CC-S1                PUMP       200.00     0  01:35              1.00
  CC-S2                PUMP       200.00     0  00:05              1.00
  JK-R1                PUMP      1000.00     0  00:05              1.00
  JK-R2                PUMP      1000.00     0  02:14              1.00
  JK-S                 PUMP       300.00     0  01:55              1.00
  XR-1                 PUMP        95.00     0  00:10              1.00
  XR-2                 PUMP        95.00     0  00:29              1.00
  XR-3                 PUMP         0.00     0  00:00              0.00
  XR-4                 PUMP         0.00     0  00:00              0.00
  
  
  ***************************
  Flow Classification Summary
  ***************************
  
  -------------------------------------------------------------------------------------
                      Adjusted    ---------- Fraction of Time in Flow Class ---------- 
                       /Actual         Up    Down  Sub   Sup   Up    Down  Norm  Inlet 
  Conduit               Length    Dry  Dry   Dry   Crit  Crit  Crit  Crit  Ltd   Ctrl  
  -------------------------------------------------------------------------------------
  1                       1.00   0.00  0.00  0.00  0.00  1.00  0.00  0.00  0.45  0.00
  HS02004478WS02006287    1.00   0.16  0.00  0.00  0.66  0.18  0.00  0.00  0.58  0.00
  HS02004479HS02004480    1.00   0.04  0.00  0.00  0.96  0.00  0.00  0.00  0.11  0.00
  HS02004480HS02004478    1.00   0.13  0.00  0.00  0.61  0.00  0.00  0.26  0.00  0.00
  HS02004770HS02004777    1.00   0.00  0.13  0.00  0.87  0.00  0.00  0.00  0.03  0.00
  HS02004777HS02004785    1.00   0.00  0.00  0.00  1.00  0.00  0.00  0.00  0.12  0.00
  HS02004785HS02004788    1.00   0.00  0.00  0.00  1.00  0.00  0.00  0.00  0.00  0.00
  HS02004788HS02004792    1.00   0.00  0.00  0.00  0.99  0.01  0.00  0.00  0.90  0.00
  HS02004792HS02004799    1.00   0.00  0.00  0.00  0.99  0.01  0.00  0.00  0.85  0.00
  HS02004799HS02004480    1.00   0.00  0.03  0.00  0.84  0.00  0.12  0.00  0.00  0.00
  HS02004802HS02004478    1.00   0.13  0.01  0.00  0.86  0.00  0.00  0.00  0.02  0.00
  HS02004807HS02004802    1.00   0.13  0.00  0.00  0.85  0.00  0.00  0.02  0.00  0.00
  HS02004817HS02004807    1.00   0.00  0.13  0.00  0.87  0.00  0.00  0.00  0.01  0.00
  HS02004817HS02004824    1.00   0.00  0.00  0.00  1.00  0.00  0.00  0.00  0.81  0.00
  HS02004824HS02004830    1.00   0.00  0.00  0.00  1.00  0.00  0.00  0.00  0.01  0.00
  HS02004830HS02004837    1.00   0.00  0.00  0.00  1.00  0.00  0.00  0.00  0.88  0.00
  HS02004837HS02004842    1.00   0.00  0.00  0.00  0.99  0.01  0.00  0.00  0.11  0.00
  HS02004842HS02004848    1.00   0.00  0.13  0.00  0.87  0.00  0.00  0.00  0.54  0.00
  HS02004848HS02004852    1.00   0.13  0.00  0.00  0.87  0.00  0.00  0.00  0.69  0.00
  HS02004852HS02004856    1.00   0.13  0.01  0.00  0.86  0.00  0.00  0.00  0.67  0.00
  HS02004856HS02004862    1.00   0.00  0.17  0.00  0.83  0.00  0.00  0.00  0.73  0.00
  HS02004862HS02004870    1.00   0.00  0.00  0.00  1.00  0.00  0.00  0.00  0.03  0.00
  HS02004870HS02004876    1.00   0.00  0.00  0.00  1.00  0.00  0.00  0.00  0.85  0.00
  HS02004876HS02004881    1.00   0.01  0.00  0.00  0.84  0.15  0.00  0.00  0.00  0.00
  HS02004881HS02006253    1.00   0.03  0.02  0.00  0.35  0.01  0.00  0.59  0.28  0.00
  HS02004901HS02004770    1.00   0.13  0.00  0.00  0.87  0.00  0.00  0.00  0.00  0.00
  WS02001211WS02001212    1.00   0.00  0.02  0.00  0.98  0.00  0.00  0.00  0.00  0.00
  WS02001212WS02001213    1.00   0.02  0.00  0.00  0.37  0.00  0.60  0.00  0.00  0.00
  WS02001213WS02003059    1.00   0.00  0.01  0.00  0.99  0.00  0.00  0.00  0.00  0.00
  WS02003059WS02003060    1.00   0.00  0.00  0.00  1.00  0.00  0.00  0.00  0.03  0.00
  WS02003060WS02003069    1.00   0.00  0.00  0.00  0.97  0.03  0.00  0.00  0.43  0.00
  WS02003066WSF200        1.00   0.06  0.00  0.00  0.00  0.94  0.00  0.00  0.68  0.00
  WS02003067WS02003066    1.00   0.05  0.01  0.00  0.94  0.00  0.00  0.00  0.00  0.00
  WS02003069WS02003072    1.00   0.00  0.00  0.00  0.99  0.01  0.00  0.00  0.59  0.00
  WS02003072WS02003073    1.00   0.00  0.00  0.00  0.00  0.00  0.00  1.00  0.00  0.00
  WS02004138WS02004139    1.00   0.02  0.00  0.00  0.97  0.01  0.00  0.00  0.98  0.00
  WS02004139WS02001211    1.00   0.00  0.01  0.00  0.99  0.00  0.00  0.00  0.00  0.00
  WS02004401WS02004402    1.00   0.00  0.00  0.00  1.00  0.00  0.00  0.00  0.00  0.00
  WS02004402WS02004403    1.00   0.00  0.00  0.00  1.00  0.00  0.00  0.00  0.00  0.00
  WS02004403WS02004404    1.00   0.00  0.00  0.00  1.00  0.00  0.00  0.00  0.00  0.00
  WS02004404WS02004405    1.00   0.00  0.00  0.00  1.00  0.00  0.00  0.00  0.01  0.00
  WS02004405WS02004406    1.00   0.00  0.00  0.00  1.00  0.00  0.00  0.00  0.00  0.00
  WS02004406WS02004407    1.00   0.00  0.01  0.00  0.99  0.00  0.00  0.00  0.01  0.00
  WS02004407WS02004409    1.00   0.01  0.00  0.00  0.98  0.01  0.00  0.00  0.85  0.00
  WS02004409WS02004410    1.00   0.01  0.00  0.00  0.99  0.00  0.00  0.00  0.00  0.00
  WS02004410WS02004411    1.00   0.01  0.00  0.00  0.99  0.00  0.00  0.00  0.01  0.00
  WS02004411WS02004412    1.00   0.01  0.00  0.00  0.99  0.00  0.00  0.00  0.00  0.00
  WS02004412WS02004413    1.00   0.01  0.00  0.00  0.99  0.00  0.00  0.00  0.02  0.00
  WS02004413WS02003067    1.00   0.01  0.04  0.00  0.00  0.00  0.95  0.00  0.00  0.00
  WS02006109WS02006110    1.00   0.00  0.00  0.00  1.00  0.00  0.00  0.00  0.00  0.00
  WS02006110WS02006113    1.00   0.00  0.00  0.00  1.00  0.00  0.00  0.00  0.00  0.00
  WS02006111WS02006112    1.00   0.00  0.00  0.00  1.00  0.00  0.00  0.00  0.78  0.00
  WS02006112WS02006115    1.00   0.00  0.00  0.00  1.00  0.00  0.00  0.00  0.00  0.00
  WS02006113WS02006111    1.00   0.00  0.00  0.00  0.19  0.81  0.00  0.00  0.06  0.00
  WS02006115WS02006116    1.00   0.00  0.00  0.00  1.00  0.00  0.00  0.00  0.00  0.00
  WS02006116WS02004401    1.00   0.00  0.00  0.00  1.00  0.00  0.00  0.00  0.00  0.00
  WS02006228WS02006109    1.00   0.00  0.00  0.00  1.00  0.00  0.00  0.00  0.00  0.00
  WS02006229WS02006228    1.00   0.00  0.00  0.00  1.00  0.00  0.00  0.00  0.00  0.00
  WS02006230WS02006229    1.00   0.00  0.00  0.00  1.00  0.00  0.00  0.00  0.00  0.00
  WS02006231WS02006230    1.00   0.00  0.00  0.00  0.31  0.00  0.69  0.00  0.00  0.00
  WS02006232WS02006231    1.00   0.00  0.00  0.00  0.99  0.00  0.00  0.00  0.01  0.00
  WS02006234WS02006232    1.00   0.00  0.01  0.00  0.99  0.00  0.00  0.00  0.03  0.00
  WS02006235WS02006234    1.00   0.02  0.00  0.00  0.91  0.00  0.07  0.00  0.00  0.00
  WS02006238WS02006235    1.00   0.02  0.00  0.00  0.98  0.00  0.00  0.00  0.00  0.00
  WS02006239WS02006238    1.00   0.02  0.00  0.00  0.98  0.00  0.00  0.00  0.07  0.00
  WS02006240WS02006239    1.00   0.02  0.00  0.00  0.58  0.00  0.00  0.40  0.04  0.00
  WS02006242WS02006240    1.00   0.01  0.00  0.00  0.98  0.00  0.01  0.00  0.00  0.00
  WS02006243WS02006242    1.00   0.01  0.00  0.00  0.98  0.00  0.00  0.01  0.55  0.00
  WS02006245WS02006243    1.00   0.01  0.00  0.00  0.90  0.00  0.00  0.09  0.00  0.00
  WS02006247WS02006245    1.00   0.01  0.00  0.00  0.98  0.00  0.00  0.01  0.00  0.00
  WS02006248WS02006247    1.00   0.01  0.00  0.00  0.98  0.00  0.00  0.01  0.53  0.00
  WS02006249WS02006248    1.00   0.00  0.01  0.00  0.46  0.00  0.53  0.00  0.00  0.00
  WS02006251WS02006249    1.00   0.00  0.00  0.00  1.00  0.00  0.00  0.00  0.51  0.00
  WS02006252WS02006251    1.00   0.01  0.13  0.00  0.19  0.00  0.67  0.00  0.00  0.00
  WS02006253WS02006251    1.00   0.01  0.00  0.00  0.99  0.00  0.00  0.00  0.00  0.00
  WS02006256WS02006235    1.00   0.02  0.00  0.00  0.98  0.00  0.00  0.00  0.00  0.00
  WS02006280WS02006229    1.00   0.14  0.00  0.00  0.16  0.03  0.00  0.68  0.00  0.00
  WS02006284WS02006280    1.00   0.14  0.00  0.00  0.11  0.01  0.00  0.74  0.00  0.00
  WS02006287WS02006284    1.00   0.10  0.06  0.00  0.56  0.28  0.00  0.00  0.64  0.00
  WSF200WS02003060        1.00   0.00  0.06  0.00  0.69  0.25  0.00  0.00  0.57  0.00
  YS02001580YS02001583    1.00   0.27  0.54  0.00  0.19  0.00  0.00  0.00  0.63  0.00
  YS02001583YS02001586    1.00   0.41  0.35  0.00  0.25  0.00  0.00  0.00  0.63  0.00
  YS02001586YS02001590    1.00   0.13  0.00  0.00  0.45  0.04  0.00  0.38  0.39  0.00
  YS02001590YS02001593    1.00   0.13  0.01  0.00  0.12  0.00  0.75  0.00  0.00  0.00
  YS02001593YS02001596    1.00   0.13  0.00  0.00  0.14  0.01  0.00  0.72  0.02  0.00
  YS02001596YS02001600    1.00   0.14  0.00  0.00  0.20  0.02  0.00  0.65  0.05  0.00
  YS02001600YS02001601    1.00   0.13  0.01  0.00  0.86  0.00  0.00  0.00  0.59  0.00
  YS02001601YS02001602    1.00   0.13  0.01  0.00  0.87  0.00  0.00  0.00  0.00  0.00
  YS02001602YS02001605    1.00   0.13  0.00  0.00  0.86  0.00  0.00  0.00  0.00  0.00
  YS02001605YS02001607    1.00   0.14  0.00  0.00  0.86  0.00  0.00  0.00  0.00  0.00
  YS02001607YS02001610    1.00   0.13  0.01  0.00  0.86  0.00  0.00  0.00  0.01  0.00
  YS02001610YS02001613    1.00   0.13  0.00  0.00  0.87  0.00  0.00  0.00  0.00  0.00
  YS02001613YS02001616    1.00   0.13  0.00  0.00  0.87  0.00  0.00  0.00  0.00  0.00
  YS02001616YS02001619    1.00   0.13  0.00  0.00  0.87  0.00  0.00  0.00  0.00  0.00
  YS02001619YS02001622    1.00   0.13  0.00  0.00  0.87  0.00  0.00  0.00  0.27  0.00
  YS02001622YS02001625    1.00   0.13  0.00  0.00  0.87  0.00  0.00  0.00  0.04  0.00
  YS02001625YS02001629    1.00   0.13  0.05  0.00  0.16  0.00  0.66  0.00  0.00  0.00
  YS02001629YS02163301    1.00   0.15  0.01  0.00  0.84  0.00  0.00  0.00  0.00  0.00
  YS02001633YS02163601    1.00   0.00  0.01  0.00  0.99  0.00  0.00  0.00  0.15  0.00
  YS02001641YS02001644    1.00   0.00  0.01  0.00  0.99  0.00  0.00  0.00  0.00  0.00
  YS02001644YS02001647    1.00   0.00  0.17  0.00  0.83  0.00  0.00  0.00  0.00  0.00
  YS02001647YS02001649    1.00   0.00  0.17  0.00  0.59  0.23  0.00  0.00  0.57  0.00
  YS02001649YS02001757    1.00   0.00  0.00  0.00  0.91  0.09  0.00  0.00  0.71  0.00
  YS02001652YS02001649    1.00   0.00  0.00  0.00  0.96  0.04  0.00  0.00  0.72  0.00
  YS02001655YS02001652    1.00   0.00  0.00  0.00  0.21  0.01  0.00  0.78  0.07  0.00
  YS02001658YS02001655    1.00   0.00  0.14  0.00  0.66  0.20  0.00  0.00  0.70  0.00
  YS02001661YS02001658    1.00   0.14  0.00  0.00  0.47  0.39  0.00  0.00  0.71  0.00
  YS02001664YS02001661    1.00   0.13  0.00  0.00  0.74  0.13  0.00  0.00  0.85  0.00
  YS02001745YS02001748    1.00   0.00  0.00  0.00  0.07  0.01  0.00  0.91  0.05  0.00
  YS02001748YS02001751    1.00   0.00  0.00  0.00  0.82  0.18  0.00  0.00  0.74  0.00
  YS02001751YS02001754    1.00   0.00  0.00  0.00  0.19  0.01  0.00  0.80  0.05  0.00
  YS02001754YS02001757    1.00   0.00  0.00  0.00  1.00  0.00  0.00  0.00  0.79  0.00
  YS02001757CaochengTiaoxuchi    1.00   0.00  0.00  0.00  0.30  0.70  0.00  0.00  0.14  0.00
  YS02001759YS02001757    1.00   0.00  0.00  0.00  1.00  0.00  0.00  0.00  0.69  0.00
  YS02001762YS02001759    1.00   0.00  0.00  0.00  1.00  0.00  0.00  0.00  0.04  0.00
  YS02001765YS02001762    1.00   0.00  0.00  0.00  1.00  0.00  0.00  0.00  0.68  0.00
  YS02001767YS02001765    1.00   0.00  0.00  0.00  1.00  0.00  0.00  0.00  0.00  0.00
  YS02001770YS02001767    1.00   0.00  0.00  0.00  1.00  0.00  0.00  0.00  0.00  0.00
  YS02001774YS02001770    1.00   0.00  0.13  0.00  0.70  0.00  0.16  0.00  0.03  0.00
  YS02001779YS02001774    1.00   0.00  0.00  0.00  1.00  0.00  0.00  0.00  0.73  0.00
  YS02001783YS02001784    1.00   0.00  0.18  0.00  0.82  0.00  0.00  0.00  0.55  0.00
  YS02001784YS02001785    1.00   0.00  0.00  0.00  1.00  0.00  0.00  0.00  0.17  0.00
  YS02001786YS02001788    1.00   0.00  0.00  0.00  0.79  0.21  0.00  0.00  0.00  0.00
  YS02001788YS02001790    1.00   0.00  0.00  0.00  0.22  0.78  0.00  0.00  0.80  0.00
  YS02001790YS02001791    1.00   0.00  0.00  0.00  0.01  0.99  0.00  0.00  0.15  0.00
  YS02001791YS02001793    1.00   0.00  0.00  0.00  0.00  1.00  0.00  0.00  0.01  0.00
  YS02001793JiankangQianchi    1.00   0.00  0.00  0.00  0.03  0.97  0.00  0.00  0.08  0.00
  YS02001882YS02001884    1.00   0.15  0.01  0.00  0.84  0.00  0.00  0.00  0.00  0.00
  YS02001884YS02001887    1.00   0.06  0.05  0.00  0.89  0.00  0.00  0.00  0.00  0.00
  YS02001887YS02001890    1.00   0.00  0.00  0.00  0.97  0.00  0.03  0.00  0.00  0.00
  YS02001890YS02001895    1.00   0.00  0.16  0.00  0.84  0.00  0.00  0.00  0.00  0.00
  YS02001895YS02001898    1.00   0.16  0.00  0.00  0.82  0.00  0.02  0.00  0.00  0.00
  YS02001898YS02001901    1.00   0.17  0.00  0.00  0.83  0.00  0.00  0.00  0.01  0.00
  YS02001901YS02001904    1.00   0.17  0.00  0.00  0.83  0.00  0.00  0.00  0.00  0.00
  YS02001904YS02001907    1.00   0.00  0.16  0.00  0.83  0.00  0.00  0.00  0.00  0.00
  YS02001907YS02006553    1.00   0.00  0.02  0.00  0.98  0.00  0.00  0.00  0.00  0.00
  YS02001910YS02001907    1.00   0.00  0.00  0.00  0.97  0.00  0.00  0.03  0.12  0.00
  YS02001915YS02001910    1.00   0.00  0.00  0.00  0.96  0.04  0.00  0.00  0.16  0.00
  YS02001918YS02001915    1.00   0.00  0.00  0.00  0.98  0.02  0.00  0.00  0.75  0.00
  YS02001920YS02001918    1.00   0.00  0.00  0.00  1.00  0.00  0.00  0.00  0.01  0.00
  YS02001923YS02001920    1.00   0.00  0.00  0.00  1.00  0.00  0.00  0.00  0.92  0.00
  YS02001926YS02001923    1.00   0.00  0.07  0.00  0.06  0.00  0.86  0.00  0.00  0.00
  YS02001929YS02001926    1.00   0.00  0.13  0.00  0.87  0.00  0.00  0.00  0.82  0.00
  YS02006553YS02006556    1.00   0.01  0.00  0.00  0.99  0.00  0.00  0.00  0.03  0.00
  YS02006556YS02006558    1.00   0.00  0.00  0.00  1.00  0.00  0.00  0.00  0.00  0.00
  YS02006558YS02006561    1.00   0.18  0.00  0.00  0.06  0.76  0.00  0.00  0.18  0.00
  YS02006561YS02001783    1.00   0.18  0.00  0.00  0.09  0.73  0.00  0.00  0.68  0.00
  YS02163301YS02001633    1.00   0.00  0.15  0.00  0.85  0.00  0.00  0.00  0.00  0.00
  YS02163601YS02164001    1.00   0.00  0.08  0.00  0.92  0.00  0.00  0.00  0.00  0.00
  YS02164001YS02001641    1.00   0.01  0.07  0.00  0.92  0.00  0.00  0.00  0.05  0.00
  YSB1154YSB6556          1.00   0.12  0.00  0.00  0.88  0.00  0.00  0.00  0.02  0.00
  YSB1171HS02004479       1.00   0.04  0.00  0.00  0.95  0.00  0.00  0.01  0.10  0.00
  YSB1174YSB1171          1.00   0.05  0.04  0.00  0.91  0.00  0.00  0.00  0.00  0.00
  YSB6556YSB1171          1.00   0.04  0.08  0.00  0.88  0.00  0.00  0.00  0.00  0.00
  
  
  *************************
  Conduit Surcharge Summary
  *************************
  
  ----------------------------------------------------------------------------
                                                           Hours        Hours 
                         --------- Hours Full --------   Above Full   Capacity
  Conduit                Both Ends  Upstream  Dnstream   Normal Flow   Limited
  ----------------------------------------------------------------------------
  HS02004478WS02006287        0.51      0.51      0.69      0.01         0.01
  HS02004479HS02004480        0.68      0.68      0.71      0.01         0.01
  HS02004480HS02004478        0.62      0.68      0.62      1.72         0.61
  HS02004770HS02004777        0.58      0.58      0.59      0.11         0.06
  HS02004777HS02004785        0.54      0.54      0.59      0.01         0.01
  HS02004785HS02004788        0.53      0.54      0.53      1.42         0.46
  HS02004788HS02004792        0.53      0.53      0.65      0.01         0.01
  HS02004792HS02004799        0.65      0.65      0.78      0.01         0.01
  HS02004799HS02004480        0.68      0.68      0.78      0.88         0.01
  HS02004802HS02004478        0.63      0.63      0.70      0.15         0.01
  HS02004807HS02004802        0.67      0.67      0.69      0.29         0.30
  HS02004817HS02004807        0.67      0.67      1.24      0.01         0.01
  HS02004817HS02004824        0.53      0.53      1.24      0.01         0.01
  HS02004824HS02004830        0.50      0.50      0.53      0.01         0.01
  HS02004830HS02004837        0.46      0.46      0.50      0.01         0.01
  HS02004837HS02004842        0.46      0.46      0.60      0.01         0.01
  HS02004842HS02004848        0.42      0.42      0.60      0.01         0.01
  HS02004848HS02004852        0.42      0.42      0.44      0.03         0.01
  HS02004852HS02004856        0.44      0.44      0.46      0.02         0.01
  HS02004856HS02004862        0.42      0.42      0.46      0.01         0.01
  HS02004862HS02004870        0.46      0.46      0.48      0.23         0.21
  HS02004870HS02004876        0.48      0.48      0.53      0.01         0.01
  HS02004876HS02004881        0.51      0.53      0.51      1.49         0.51
  HS02004881HS02006253        0.51      0.51      1.39      0.01         0.01
  HS02004901HS02004770        0.58      0.58      0.59      0.01         0.01
  WS02003072WS02003073        0.01      0.01      0.01      2.98         0.01
  WS02004401WS02004402        1.67      1.67      1.69      1.42         1.42
  WS02004402WS02004403        1.69      1.69      1.69      1.68         1.64
  WS02004403WS02004404        1.69      1.69      1.74      0.01         0.02
  WS02004404WS02004405        1.73      1.74      1.73      3.48         1.73
  WS02004405WS02004406        1.72      1.73      1.72      1.84         1.72
  WS02004406WS02004407        0.01      0.01      1.72      0.01         0.01
  WS02004407WS02004409        0.01      0.01      1.06      0.01         0.01
  WS02004409WS02004410        1.03      1.06      1.03      1.47         1.03
  WS02004410WS02004411        0.92      1.03      0.92      1.52         0.92
  WS02004411WS02004412        0.82      0.92      0.82      1.64         0.82
  WS02004412WS02004413        0.82      0.82      1.38      0.01         0.01
  WS02004413WS02003067        0.01      0.01      1.38      0.01         0.01
  WS02006109WS02006110        1.79      1.80      2.05      1.80         0.01
  WS02006110WS02006113        1.34      1.34      2.05      0.29         0.01
  WS02006111WS02006112        1.30      1.31      2.64      0.01         0.01
  WS02006112WS02006115        1.47      1.47      1.91      0.01         0.01
  WS02006113WS02006111        1.32      1.34      1.32      1.43         1.32
  WS02006115WS02006116        1.48      1.48      1.48      1.48         1.45
  WS02006116WS02004401        1.67      1.67      1.67      1.58         1.55
  WS02006228WS02006109        2.03      2.05      2.03      3.05         2.03
  WS02006229WS02006228        2.03      2.03      2.03      2.38         2.03
  WS02006230WS02006229        2.07      2.16      2.07      4.09         1.00
  WS02006231WS02006230        1.73      1.73      1.75      3.38         1.04
  WS02006232WS02006231        1.74      1.74      1.91      0.01         0.15
  WS02006234WS02006232        1.77      1.77      1.91      0.01         0.01
  WS02006235WS02006234        1.76      1.76      1.77      3.15         1.02
  WS02006238WS02006235        1.78      1.78      1.84      0.01         0.39
  WS02006239WS02006238        1.77      1.77      1.78      0.86         0.02
  WS02006240WS02006239        1.74      1.74      1.75      0.86         0.02
  WS02006242WS02006240        1.74      1.74      1.75      1.00         0.92
  WS02006243WS02006242        1.66      1.66      1.74      0.01         0.01
  WS02006245WS02006243        1.64      1.64      1.65      0.03         0.02
  WS02006247WS02006245        1.62      1.63      1.62      2.75         0.34
  WS02006248WS02006247        1.59      1.59      1.62      0.01         0.01
  WS02006249WS02006248        1.56      1.57      1.57      1.31         0.01
  WS02006251WS02006249        1.55      1.56      1.57      1.32         1.27
  WS02006252WS02006251        1.46      1.47      1.50      0.26         0.09
  WS02006253WS02006251        1.55      1.56      1.59      0.83         0.04
  WS02006256WS02006235        3.33      3.35      7.43      0.65         0.01
  WS02006280WS02006229        0.83      0.83      0.95      0.01         0.01
  WS02006284WS02006280        0.71      0.71      0.81      0.01         0.01
  WS02006287WS02006284        0.61      0.61      0.73      0.34         0.34
  YS02001580YS02001583        0.64      0.64      0.67      0.01         0.01
  YS02001583YS02001586        0.65      0.65      0.74      0.01         0.01
  YS02001586YS02001590        0.75      0.75      0.82      0.01         0.01
  YS02001590YS02001593        0.82      0.82      0.84      0.85         0.01
  YS02001593YS02001596        0.84      0.84      0.94      0.01         0.01
  YS02001596YS02001600        1.00      1.00      1.09      0.01         0.01
  YS02001600YS02001601        1.15      1.15      1.44      0.01         0.01
  YS02001601YS02001602        1.33      1.33      1.49      1.11         0.01
  YS02001602YS02001605        1.27      1.27      1.33      2.39         0.01
  YS02001605YS02001607        1.23      1.27      1.23      1.40         1.23
  YS02001607YS02001610        0.77      0.77      0.80      0.01         0.01
  YS02001610YS02001613        0.77      0.77      0.80      0.01         0.01
  YS02001613YS02001616        0.73      0.73      0.77      0.01         0.01
  YS02001616YS02001619        0.71      0.71      0.73      0.01         0.05
  YS02001619YS02001622        0.70      0.71      0.70      0.86         0.68
  YS02001622YS02001625        0.70      0.70      0.91      0.01         0.01
  YS02001625YS02001629        0.63      0.63      0.91      0.01         0.01
  YS02001629YS02163301        0.89      0.89      0.90      0.33         0.32
  YS02001633YS02163601        0.93      0.93      0.96      0.48         0.47
  YS02001641YS02001644        0.78      0.83      0.78      1.54         0.77
  YS02001644YS02001647        0.51      0.51      0.78      0.05         0.01
  YS02001647YS02001649        0.51      0.51      0.61      0.01         0.01
  YS02001649YS02001757        0.59      0.61      0.69      0.38         0.31
  YS02001652YS02001649        0.44      0.44      0.61      0.01         0.01
  YS02001655YS02001652        0.30      0.30      0.42      0.01         0.01
  YS02001658YS02001655        0.19      0.19      0.30      0.01         0.01
  YS02001661YS02001658        0.05      0.05      0.19      0.01         0.01
  YS02001664YS02001661        0.01      0.01      0.09      0.01         0.01
  YS02001745YS02001748        0.01      0.01      0.12      0.01         0.01
  YS02001748YS02001751        0.16      0.16      0.21      0.01         0.01
  YS02001751YS02001754        0.21      0.21      0.31      0.01         0.01
  YS02001754YS02001757        0.35      0.35      0.69      0.01         0.01
  YS02001757CaochengTiaoxuchi        0.43      0.69      1.22      0.47         0.13
  YS02001759YS02001757        0.54      0.54      0.69      0.08         0.09
  YS02001762YS02001759        0.51      0.51      0.54      0.01         0.03
  YS02001765YS02001762        0.48      0.48      0.51      0.01         0.01
  YS02001767YS02001765        0.45      0.45      0.48      0.01         0.06
  YS02001770YS02001767        0.45      0.45      0.45      0.58         0.39
  YS02001774YS02001770        0.42      0.42      0.49      0.01         0.01
  YS02001779YS02001774        0.32      0.32      0.49      0.01         0.01
  YS02001783YS02001784        0.53      0.56      0.53      0.73         0.53
  YS02001784YS02001785        0.42      0.53      0.42      0.98         0.42
  YS02001786YS02001788        0.01      0.42      0.01      0.85         0.01
  YS02001790YS02001791        0.01      0.01      0.01      0.52         0.01
  YS02001793JiankangQianchi        0.01      0.01      0.11      0.01         0.01
  YS02001882YS02001884        0.50      0.50      0.51      0.01         0.01
  YS02001884YS02001887        0.54      0.54      0.55      0.01         0.01
  YS02001887YS02001890        0.56      0.56      0.57      0.14         0.01
  YS02001890YS02001895        0.49      0.49      0.59      0.01         0.01
  YS02001895YS02001898        0.48      0.48      0.49      0.01         0.01
  YS02001898YS02001901        0.49      0.49      0.53      0.01         0.01
  YS02001901YS02001904        0.52      0.52      0.53      0.01         0.01
  YS02001904YS02001907        0.52      0.52      0.83      0.01         0.01
  YS02001907YS02006553        0.99      0.99      1.06      0.01         0.01
  YS02001910YS02001907        0.59      0.59      0.81      0.01         0.01
  YS02001915YS02001910        0.50      0.50      0.59      0.01         0.01
  YS02001918YS02001915        0.41      0.41      0.50      0.01         0.01
  YS02001920YS02001918        0.41      0.41      0.43      0.01         0.01
  YS02001923YS02001920        0.37      0.37      0.43      0.01         0.01
  YS02001926YS02001923        0.13      0.13      0.17      0.01         0.01
  YS02001929YS02001926        0.01      0.01      0.17      0.01         0.01
  YS02006553YS02006556        0.69      0.69      0.83      0.01         0.01
  YS02006556YS02006558        0.76      0.76      0.85      0.01         0.01
  YS02006558YS02006561        0.45      0.67      0.45      0.94         0.45
  YS02006561YS02001783        0.38      0.38      0.56      0.01         0.01
  YS02163301YS02001633        0.90      0.90      0.95      0.01         0.01
  YS02163601YS02164001        0.84      0.84      0.96      0.22         0.01
  YS02164001YS02001641        0.83      0.84      0.83      0.77         0.64
  YSB1154YSB6556              0.75      0.75      0.91      0.01         0.01
  YSB1171HS02004479           0.64      0.64      0.91      0.01         0.01
  YSB1174YSB1171              0.83      0.83      1.16      0.01         0.01
  YSB6556YSB1171              0.75      0.75      1.30      0.01         0.01
  
  
  ***************
  Pumping Summary
  ***************
  
  ---------------------------------------------------------------------------------------------------------
                                                  Min       Avg       Max     Total     Power    % Time Off
                        Percent   Number of      Flow      Flow      Flow    Volume     Usage    Pump Curve
  Pump                 Utilized   Start-Ups       LPS       LPS       LPS  10^6 ltr     Kw-hr    Low   High
  ---------------------------------------------------------------------------------------------------------
  CC-R1                   43.75          10      0.00    602.56    683.00     6.419    108.65    0.0   71.4
  CC-R2                   83.33          13      0.00    375.86    683.00     5.780     97.26    0.0   89.2
  CC-S1                   20.83          13      0.00    193.62    200.00     1.153      8.92    0.0   40.9
  CC-S2                   62.50          16      0.00    102.03    200.00     1.104      8.01    0.0   83.3
  JK-R1                   78.12          13      0.00    158.83   1000.00     2.939      7.97    0.0    0.0
  JK-R2                   44.79          10      0.00    230.40   1000.00     2.616      5.71    0.0    0.0
  JK-S                    38.54          12      0.00    125.88    300.00     1.349     30.26    0.0    0.0
  XR-1                    97.91           1      0.00     95.00     95.00     2.679      9.64    0.0    0.0
  XR-2                    93.95           1      0.00     95.00     95.00     2.570      8.80    0.0    0.0
  XR-3                     0.00           0      0.00      0.00      0.00     0.000      0.00    0.0    0.0
  XR-4                     0.00           0      0.00      0.00      0.00     0.000      0.00    0.0    0.0
  

  Analysis begun on:  Thu Jun 15 06:46:23 2023
  Analysis ended on:  Thu Jun 15 06:46:27 2023
  Total elapsed time: 00:00:04