
  OWA STORM WATER MANAGEMENT MODEL - VERSION v5.2.3 (OWA 2023-03-28)
  ------------------------------------------------------------

  WARNING 04: minimum elevation drop used for Conduit WS02004404WS02004405
  WARNING 03: negative offset ignored for Link YS02001904YS02001907
  
  ****************
  Analysis Options
  ****************
  Flow Units ............... LPS
  Process Models:
    Rainfall/Runoff ........ YES
    RDII ................... NO
    Snowmelt ............... NO
    Groundwater ............ NO
    Flow Routing ........... YES
    Ponding Allowed ........ NO
    Water Quality .......... NO
  Infiltration Method ...... HORTON
  Flow Routing Method ...... DYNWAVE
  Surcharge Method ......... EXTRAN
  Starting Date ............ 08/28/2015 08:00:00
  Ending Date .............. 08/28/2015 16:00:00
  Antecedent Dry Days ...... 8.0
  Report Time Step ......... 00:01:00
  Wet Time Step ............ 00:01:00
  Dry Time Step ............ 00:01:00
  Routing Time Step ........ 30.00 sec
  Variable Time Step ....... YES
  Maximum Trials ........... 8
  Number of Threads ........ 1
  Head Tolerance ........... 0.001500 m
  
  
  **************************        Volume         Depth
  Runoff Quantity Continuity     hectare-m            mm
  **************************     ---------       -------
  Total Precipitation ......         3.439        56.764
  Evaporation Loss .........         0.000         0.000
  Infiltration Loss ........         0.241         3.971
  Surface Runoff ...........         3.138        51.799
  Final Storage ............         0.061         1.007
  Continuity Error (%) .....        -0.024
  
  
  **************************        Volume        Volume
  Flow Routing Continuity        hectare-m      10^6 ltr
  **************************     ---------     ---------
  Dry Weather Inflow .......         0.630         6.296
  Wet Weather Inflow .......         3.138        31.376
  Groundwater Inflow .......         0.000         0.000
  RDII Inflow ..............         0.000         0.000
  External Inflow ..........         0.105         1.045
  External Outflow .........         2.893        28.932
  Flooding Loss ............         1.307        13.067
  Evaporation Loss .........         0.000         0.000
  Exfiltration Loss ........         0.000         0.000
  Initial Stored Volume ....         0.303         3.031
  Final Stored Volume ......         0.177         1.769
  Continuity Error (%) .....        -4.839
  
  
  *************************
  Highest Continuity Errors
  *************************
  Node JK-storage (-36.84%)
  Node YS02001884 (5.11%)
  Node YS02001583 (-4.79%)
  Node CC-storage (-3.74%)
  Node HS02004842 (1.82%)
  
  
  ***************************
  Time-Step Critical Elements
  ***************************
  Link WS02006252WS02006251 (64.84%)
  Link WS02006280WS02006229 (11.31%)
  Link YS02001793JiankangQianchi (8.51%)
  Link WS02006238WS02006235 (4.82%)
  Link YS02001791YS02001793 (2.02%)
  
  
  ********************************
  Highest Flow Instability Indexes
  ********************************
  Link WS02006113WS02006111 (36)
  Link WS02006111WS02006112 (19)
  Link WS02006238WS02006235 (12)
  Link WS02004404WS02004405 (11)
  Link WS02006252WS02006251 (10)
  
  
  *********************************
  Most Frequent Nonconverging Nodes
  *********************************
  Node CC-1 (8.20%)
  Node CC-2 (8.20%)
  Node JK-1 (8.20%)
  Node JK-2 (8.20%)
  Node WSC (8.20%)
  
  
  *************************
  Routing Time Step Summary
  *************************
  Minimum Time Step           :     0.00 sec
  Average Time Step           :     1.42 sec
  Maximum Time Step           :    30.00 sec
  % of Time in Steady State   :     0.00
  Average Iterations per Step :     2.83
  % of Steps Not Converging   :     8.20
  Time Step Frequencies       :
     30.000 - 13.228 sec      :     0.00 %
     13.228 -  5.833 sec      :     1.24 %
      5.833 -  2.572 sec      :    11.60 %
      2.572 -  1.134 sec      :    22.14 %
      1.134 -  0.500 sec      :    65.02 %
  
  
  ***************************
  Subcatchment Runoff Summary
  ***************************
  
  ------------------------------------------------------------------------------------------------------------------------------
                            Total      Total      Total      Total     Imperv       Perv      Total       Total     Peak  Runoff
                           Precip      Runon       Evap      Infil     Runoff     Runoff     Runoff      Runoff   Runoff   Coeff
  Subcatchment                 mm         mm         mm         mm         mm         mm         mm    10^6 ltr      LPS
  ------------------------------------------------------------------------------------------------------------------------------
  sub0                      56.76       0.00       0.00       0.98      51.54       3.00      54.54        0.04    36.31   0.961
  sub1                      56.76       0.00       0.00       1.68      49.27       4.56      53.83        0.36   249.45   0.948
  sub10                     56.76       0.00       0.00       1.18      50.94       3.36      54.30        0.60   425.09   0.957
  sub11                     56.76       0.00       0.00       1.16      50.96       3.38      54.34        0.63   471.51   0.957
  sub12                     56.76       0.00       0.00       1.89      48.21       5.49      53.71        0.47   376.93   0.946
  sub14                     56.76       0.00       0.00       1.33      50.40       3.78      54.18        0.52   376.40   0.955
  sub15                     56.76       0.00       0.00       5.29      38.77      11.74      50.50        0.87   587.99   0.890
  sub16                     56.76       0.00       0.00       5.45      37.13      13.29      50.41        0.53   395.88   0.888
  sub17                     56.76       0.00       0.00       5.31      37.68      12.85      50.53        0.43   321.50   0.890
  sub2                      56.76       0.00       0.00       7.58      34.86      13.42      48.28        0.45   258.51   0.851
  sub22                     56.76       0.00       0.00       8.04      31.58      16.37      47.95        3.03  1980.79   0.845
  sub23                     56.76       0.00       0.00       6.54      34.90      14.46      49.36        2.35  1634.53   0.870
  sub3                      56.76       0.00       0.00       8.22      34.82      12.79      47.60        1.07   558.16   0.839
  sub4                      56.76       0.00       0.00       1.90      49.10       4.35      53.45        1.11   611.18   0.942
  sub5                      56.76       0.00       0.00       1.03      51.49       2.94      54.43        0.62   429.60   0.959
  sub60                     56.76       0.00       0.00       1.78      48.75       5.03      53.78        0.71   535.01   0.947
  sub61                     56.76       0.00       0.00       2.59      45.98       7.06      53.04        0.97   743.80   0.934
  sub62                     56.76       0.00       0.00       1.19      50.94       3.36      54.29        1.49  1041.64   0.956
  sub63                     56.76       0.00       0.00       4.84      39.33      11.63      50.96        1.16   841.93   0.898
  sub64                     56.76       0.00       0.00       2.44      47.04       6.08      53.12        1.28   848.69   0.936
  sub65                     56.76       0.00       0.00       2.11      48.13       5.27      53.40        1.47   945.30   0.941
  sub66                     56.76       0.00       0.00       6.03      39.22      10.44      49.66        2.32  1251.16   0.875
  sub67                     56.76       0.00       0.00       1.14      50.98       3.41      54.38        1.01   801.01   0.958
  sub68                     56.76       0.00       0.00       2.15      47.63       5.80      53.43        1.47  1071.52   0.941
  sub69                     56.76       0.00       0.00       1.93      48.14       6.58      54.72        2.03  1254.84   0.964
  sub7                      56.76       0.00       0.00       1.31      50.41       3.81      54.22        0.18   139.47   0.955
  sub70                     56.76       0.00       0.00       6.50      37.30      12.80      50.10        1.45   700.20   0.883
  sub71                     56.76       0.00       0.00       1.22      50.89       3.32      54.21        1.42   914.28   0.955
  sub72                     56.76       0.00       0.00       1.09      51.39       2.88      54.27        0.75   443.43   0.956
  sub8                      56.76       0.00       0.00       1.32      50.40       3.79      54.19        0.35   256.02   0.955
  sub9                      56.76       0.00       0.00       1.32      50.40       3.79      54.19        0.26   191.33   0.955
  
  
  ******************
  Node Depth Summary
  ******************
  
  ---------------------------------------------------------------------------------
                                 Average  Maximum  Maximum  Time of Max    Reported
                                   Depth    Depth      HGL   Occurrence   Max Depth
  Node                 Type       Meters   Meters   Meters  days hr:min      Meters
  ---------------------------------------------------------------------------------
  HS02004478           JUNCTION     0.17     1.59    10.82     0  02:23        1.58
  HS02004479           JUNCTION     0.24     1.69    10.90     0  02:19        1.67
  HS02004480           JUNCTION     0.21     1.67    10.91     0  02:19        1.63
  HS02004770           JUNCTION     0.22     1.42    11.25     0  02:15        1.42
  HS02004777           JUNCTION     0.25     1.48    11.28     0  02:15        1.48
  HS02004785           JUNCTION     0.14     1.49    11.39     0  02:16        1.49
  HS02004788           JUNCTION     0.11     1.42    11.32     0  02:15        1.42
  HS02004792           JUNCTION     0.15     1.60    11.12     0  02:16        1.60
  HS02004799           JUNCTION     0.26     1.76    10.97     0  02:16        1.76
  HS02004802           JUNCTION     0.27     1.80    10.93     0  02:25        1.79
  HS02004807           JUNCTION     0.24     1.92    11.09     0  02:16        1.92
  HS02004817           JUNCTION     0.54     2.39    11.24     0  02:25        2.38
  HS02004824           JUNCTION     0.12     1.98    11.38     0  02:19        1.97
  HS02004830           JUNCTION     0.13     2.00    11.47     0  02:19        1.93
  HS02004837           JUNCTION     0.11     1.99    11.57     0  02:19        1.85
  HS02004842           JUNCTION     0.40     2.22    11.49     0  02:19        2.22
  HS02004848           JUNCTION     0.09     2.07    11.67     0  02:19        2.07
  HS02004852           JUNCTION     0.09     2.12    11.63     0  02:18        1.97
  HS02004856           JUNCTION     0.15     2.07    11.50     0  02:18        1.97
  HS02004862           JUNCTION     0.10     2.00    11.38     0  02:18        1.95
  HS02004870           JUNCTION     0.10     2.10    11.39     0  02:18        1.94
  HS02004876           JUNCTION     0.14     2.22    11.25     0  02:19        2.02
  HS02004881           JUNCTION     0.08     2.15    11.18     0  02:18        1.78
  HS02004901           JUNCTION     0.23     1.42    11.24     0  02:15        1.42
  WS02001211           JUNCTION     0.62     0.81     5.65     0  02:28        0.81
  WS02001212           JUNCTION     0.36     0.57     5.64     0  02:27        0.57
  WS02001213           JUNCTION     0.58     0.87     5.63     0  02:27        0.87
  WS02003059           JUNCTION     0.65     0.94     5.63     0  02:26        0.94
  WS02003060           JUNCTION     0.38     0.69     5.62     0  02:26        0.69
  WS02003066           JUNCTION     0.23     0.46     6.01     0  02:25        0.46
  WS02003067           JUNCTION     0.56     0.89     6.21     0  02:24        0.89
  WS02003069           JUNCTION     0.42     0.78     5.37     0  02:26        0.78
  WS02003072           JUNCTION     0.49     0.81     5.19     0  02:27        0.81
  WS02003073           JUNCTION     0.29     0.52     4.58     0  02:27        0.52
  WS02004138           JUNCTION     0.13     0.14     7.39     0  00:31        0.14
  WS02004139           JUNCTION     0.56     0.75     5.66     0  02:28        0.75
  WS02004401           JUNCTION     0.76     2.19     8.19     0  02:16        2.19
  WS02004402           JUNCTION     0.78     2.17     8.13     0  02:16        2.17
  WS02004403           JUNCTION     0.79     1.97     7.90     0  02:16        1.97
  WS02004404           JUNCTION     0.86     1.76     7.61     0  02:25        1.75
  WS02004405           JUNCTION     0.85     1.71     7.56     0  02:25        1.70
  WS02004406           JUNCTION     0.85     1.60     7.43     0  02:25        1.59
  WS02004407           JUNCTION     0.26     0.95     7.26     0  02:25        0.95
  WS02004409           JUNCTION     0.53     1.40     7.17     0  02:25        1.39
  WS02004410           JUNCTION     0.54     1.31     7.03     0  02:25        1.30
  WS02004411           JUNCTION     0.55     1.21     6.89     0  02:25        1.21
  WS02004412           JUNCTION     0.55     1.11     6.75     0  02:25        1.11
  WS02004413           JUNCTION     0.69     1.15     6.62     0  02:25        1.15
  WS02006109           JUNCTION     0.92     2.64     9.26     0  02:16        2.64
  WS02006110           JUNCTION     0.88     2.76     9.34     0  02:16        2.76
  WS02006111           JUNCTION     0.37     2.14     8.85     0  02:16        2.14
  WS02006112           JUNCTION     0.96     2.68     8.56     0  00:00        2.47
  WS02006113           JUNCTION     0.46     2.46     9.36     0  02:16        2.46
  WS02006115           JUNCTION     0.67     2.09     8.23     0  02:16        1.99
  WS02006116           JUNCTION     0.74     2.07     8.11     0  02:16        1.97
  WS02006228           JUNCTION     0.96     3.03     9.68     0  02:16        3.03
  WS02006229           JUNCTION     0.95     3.25     9.94     0  02:16        3.25
  WS02006230           JUNCTION     0.90     2.65     9.39     0  02:11        2.65
  WS02006231           JUNCTION     0.63     2.20     9.33     0  02:43        2.20
  WS02006232           JUNCTION     0.74     2.18     9.22     0  02:11        2.18
  WS02006234           JUNCTION     0.63     1.96     9.12     0  02:10        1.96
  WS02006235           JUNCTION     0.65     1.97     9.13     0  02:35        1.93
  WS02006238           JUNCTION     0.68     1.98     9.12     0  02:35        1.94
  WS02006239           JUNCTION     0.63     1.95     9.16     0  02:16        1.95
  WS02006240           JUNCTION     0.58     1.91     9.20     0  02:16        1.91
  WS02006242           JUNCTION     0.63     1.55     8.82     0  02:05        1.55
  WS02006243           JUNCTION     0.52     1.38     8.80     0  02:16        1.37
  WS02006245           JUNCTION     0.50     1.28     8.76     0  02:05        1.27
  WS02006247           JUNCTION     0.52     1.30     8.80     0  03:05        1.30
  WS02006248           JUNCTION     0.46     1.10     8.69     0  01:46        1.10
  WS02006249           JUNCTION     0.49     1.09     8.69     0  01:46        1.09
  WS02006251           JUNCTION     0.54     2.21     9.88     0  02:18        2.14
  WS02006252           JUNCTION     0.38     1.50     9.74     0  02:18        1.50
  WS02006253           JUNCTION     0.60     3.48    11.13     0  02:18        3.05
  WS02006256           JUNCTION     0.94     2.35     9.28     0  00:11        2.35
  WS02006280           JUNCTION     0.22     1.77    10.04     0  02:16        1.77
  WS02006284           JUNCTION     0.49     1.95    10.34     0  02:23        1.94
  WS02006287           JUNCTION     0.23     1.74    10.69     0  02:23        1.74
  WSF200               JUNCTION     0.23     0.52     5.76     0  02:25        0.52
  YS02001580           JUNCTION     0.06     1.05     9.59     0  02:14        0.83
  YS02001583           JUNCTION     0.09     1.14     9.64     0  02:14        0.86
  YS02001586           JUNCTION     0.15     1.13     9.30     0  02:14        1.13
  YS02001590           JUNCTION     0.24     1.40     9.26     0  02:14        1.40
  YS02001593           JUNCTION     0.17     1.46     9.32     0  02:16        1.46
  YS02001596           JUNCTION     0.22     1.80     9.22     0  02:16        1.80
  YS02001600           JUNCTION     0.29     1.87     9.00     0  02:14        1.87
  YS02001601           JUNCTION     0.48     2.06     8.90     0  02:14        2.06
  YS02001602           JUNCTION     0.41     1.87     8.77     0  02:14        1.87
  YS02001605           JUNCTION     0.38     1.78     8.68     0  02:16        1.78
  YS02001607           JUNCTION     0.39     1.68     8.53     0  02:16        1.68
  YS02001610           JUNCTION     0.43     1.68     8.48     0  02:14        1.68
  YS02001613           JUNCTION     0.39     1.70     8.54     0  02:16        1.70
  YS02001616           JUNCTION     0.33     1.61     8.52     0  02:16        1.61
  YS02001619           JUNCTION     0.30     1.61     8.54     0  02:16        1.61
  YS02001622           JUNCTION     0.30     1.57     8.47     0  02:23        1.56
  YS02001625           JUNCTION     0.56     1.78     8.38     0  02:18        1.78
  YS02001629           JUNCTION     0.46     1.85     8.40     0  02:20        1.85
  YS02001633           JUNCTION     0.54     2.08     8.53     0  02:16        2.08
  YS02001641           JUNCTION     0.53     1.97     8.41     0  02:21        1.94
  YS02001644           JUNCTION     0.53     1.92     8.35     0  02:21        1.92
  YS02001647           JUNCTION     0.34     1.78     8.39     0  02:22        1.71
  YS02001649           JUNCTION     0.43     2.01     8.40     0  02:22        1.90
  YS02001652           JUNCTION     0.30     1.94     8.53     0  02:22        1.73
  YS02001655           JUNCTION     0.20     1.65     8.50     0  02:22        1.52
  YS02001658           JUNCTION     0.11     2.24     9.38     0  02:21        1.27
  YS02001661           JUNCTION     0.12     1.14     8.55     0  02:23        1.06
  YS02001664           JUNCTION     0.04     0.50     8.43     0  02:23        0.49
  YS02001745           JUNCTION     0.04     0.71     8.23     0  02:24        0.71
  YS02001748           JUNCTION     0.11     1.44     8.51     0  02:22        1.15
  YS02001751           JUNCTION     0.17     1.47     8.35     0  02:22        1.33
  YS02001754           JUNCTION     0.28     1.68     8.29     0  02:22        1.58
  YS02001757           JUNCTION     0.48     1.94     8.21     0  02:22        1.91
  YS02001759           JUNCTION     0.42     1.94     8.30     0  02:23        1.91
  YS02001762           JUNCTION     0.40     1.93     8.33     0  02:22        1.90
  YS02001765           JUNCTION     0.37     1.91     8.36     0  02:22        1.88
  YS02001767           JUNCTION     0.36     1.89     8.38     0  02:22        1.86
  YS02001770           JUNCTION     0.37     1.93     8.42     0  02:22        1.90
  YS02001774           JUNCTION     0.43     1.98     8.40     0  02:22        1.97
  YS02001779           JUNCTION     0.25     1.68     8.37     0  02:20        1.68
  YS02001783           JUNCTION     0.19     1.32     7.46     0  02:19        1.23
  YS02001784           JUNCTION     0.21     1.16     7.23     0  02:19        1.12
  YS02001786           JUNCTION     0.18     0.91     6.94     0  02:19        0.87
  YS02001788           JUNCTION     0.13     0.62     6.60     0  02:23        0.62
  YS02001790           JUNCTION     0.15     0.73     6.37     0  02:24        0.72
  YS02001791           JUNCTION     0.10     0.44     5.91     0  02:24        0.43
  YS02001793           JUNCTION     0.06     0.26     5.09     0  02:30        0.24
  YS02001882           JUNCTION     0.25     1.65     8.36     0  02:23        1.64
  YS02001884           JUNCTION     0.34     1.75     8.36     0  02:24        1.75
  YS02001887           JUNCTION     0.41     1.83     8.37     0  02:23        1.82
  YS02001890           JUNCTION     0.44     1.81     8.32     0  02:19        1.81
  YS02001895           JUNCTION     0.22     1.63     8.38     0  02:19        1.63
  YS02001898           JUNCTION     0.23     1.67     8.41     0  02:19        1.67
  YS02001901           JUNCTION     0.34     1.78     8.39     0  02:19        1.78
  YS02001904           JUNCTION     0.32     1.72     8.35     0  02:19        1.72
  YS02001907           JUNCTION     0.63     1.96     8.25     0  02:19        1.96
  YS02001910           JUNCTION     0.44     1.96     8.47     0  02:19        1.87
  YS02001915           JUNCTION     0.25     1.91     8.62     0  02:19        1.76
  YS02001918           JUNCTION     0.12     1.81     8.88     0  02:19        1.43
  YS02001920           JUNCTION     0.20     2.11     9.11     0  02:19        1.53
  YS02001923           JUNCTION     0.09     2.02     9.28     0  02:19        1.34
  YS02001926           JUNCTION     0.13     1.90     9.35     0  02:19        1.20
  YS02001929           JUNCTION     0.07     1.78     9.47     0  02:19        1.01
  YS02006553           JUNCTION     0.64     2.02     8.30     0  02:19        2.02
  YS02006556           JUNCTION     0.61     2.01     8.32     0  02:19        2.01
  YS02006558           JUNCTION     0.65     2.03     8.30     0  02:19        2.03
  YS02006561           JUNCTION     0.12     1.02     7.68     0  02:19        0.89
  YS02163301           JUNCTION     0.48     1.92     8.44     0  02:21        1.92
  YS02163601           JUNCTION     0.58     2.06     8.46     0  02:21        2.05
  YS02164001           JUNCTION     0.51     1.99     8.44     0  02:21        1.94
  YSB1154              JUNCTION     0.38     1.93    10.99     0  02:25        1.93
  YSB1171              JUNCTION     0.52     1.95    10.85     0  02:16        1.95
  YSB1174              JUNCTION     0.33     1.81    10.92     0  02:23        1.81
  YSB6556              JUNCTION     0.27     1.75    10.92     0  02:24        1.75
  CC-1                 OUTFALL      0.00     0.00     0.00     0  00:00        0.00
  CC-2                 OUTFALL      0.00     0.00     0.00     0  00:00        0.00
  JK-1                 OUTFALL      0.00     0.00     0.00     0  00:00        0.00
  JK-2                 OUTFALL      0.00     0.00     0.00     0  00:00        0.00
  WSC                  OUTFALL      0.29     0.52     1.19     0  02:28        0.52
  CC-storage           STORAGE      0.83     1.98     7.48     0  03:15        1.98
  JK-storage           STORAGE      0.08     3.00     3.80     0  00:05        3.00
  XR-storage           STORAGE      7.91     9.26     7.26     0  08:00        9.26
  
  
  *******************
  Node Inflow Summary
  *******************
  
  -------------------------------------------------------------------------------------------------
                                  Maximum  Maximum                  Lateral       Total        Flow
                                  Lateral    Total  Time of Max      Inflow      Inflow     Balance
                                   Inflow   Inflow   Occurrence      Volume      Volume       Error
  Node                 Type           LPS      LPS  days hr:min    10^6 ltr    10^6 ltr     Percent
  -------------------------------------------------------------------------------------------------
  HS02004478           JUNCTION      0.00  2307.40     0  02:23           0        7.83      -0.011
  HS02004479           JUNCTION      0.00   406.87     0  02:19           0        0.77       0.092
  HS02004480           JUNCTION      0.00  2076.42     0  02:17           0        5.82       0.040
  HS02004770           JUNCTION   1634.53  1634.53     0  02:25        2.35        2.58       0.122
  HS02004777           JUNCTION      0.03   726.49     0  02:15    0.000864        1.72       0.304
  HS02004785           JUNCTION      0.15   740.41     0  02:15     0.00432        1.72       0.024
  HS02004788           JUNCTION    589.66   890.72     0  02:15       0.917        2.63       0.004
  HS02004792           JUNCTION   1981.07  2808.54     0  02:25        3.04        5.66       0.010
  HS02004799           JUNCTION    376.40  1728.91     0  02:16       0.516        5.23       0.051
  HS02004802           JUNCTION      0.00  1233.26     0  02:26           0        2.11       0.184
  HS02004807           JUNCTION    471.51  1532.43     0  02:25       0.631        2.21       0.185
  HS02004817           JUNCTION      0.60  1064.05     0  02:25      0.0173        1.64       1.033
  HS02004824           JUNCTION    611.23  1063.28     0  02:25        1.12        1.82       0.030
  HS02004830           JUNCTION      0.15   600.75     0  02:16     0.00432       0.902       0.130
  HS02004837           JUNCTION    431.44   787.24     0  02:19       0.782        1.19       0.064
  HS02004842           JUNCTION      0.00   791.64     0  02:17           0       0.703       1.857
  HS02004848           JUNCTION    558.16  1051.24     0  02:18        1.07        1.61      -0.023
  HS02004852           JUNCTION      0.00  1018.09     0  02:18           0        1.46      -0.008
  HS02004856           JUNCTION    191.33  1078.33     0  02:18       0.261        1.72       0.066
  HS02004862           JUNCTION    258.71  1176.65     0  02:18       0.456        2.17      -0.009
  HS02004870           JUNCTION    256.02  1261.50     0  02:18       0.346        2.52       0.013
  HS02004876           JUNCTION    249.45  1478.73     0  02:25       0.358        2.87       0.022
  HS02004881           JUNCTION    139.47  1618.51     0  02:25       0.183        3.06       0.004
  HS02004901           JUNCTION    395.88   657.12     0  02:25       0.528       0.799       0.209
  WS02001211           JUNCTION      7.35   204.73     0  02:57       0.212        5.44       0.612
  WS02001212           JUNCTION      0.00   211.84     0  02:57           0        5.41       0.290
  WS02001213           JUNCTION      0.00   217.13     0  02:57           0        5.39       0.333
  WS02003059           JUNCTION      0.00   222.51     0  02:56           0        5.38       0.595
  WS02003060           JUNCTION     16.53  1513.57     0  02:26       0.476        14.9       0.099
  WS02003066           JUNCTION      0.00  1315.73     0  02:25           0        9.08       0.016
  WS02003067           JUNCTION      0.00  1314.91     0  02:25           0        9.09       0.047
  WS02003069           JUNCTION      0.32  1513.71     0  02:26     0.00922        14.9       0.103
  WS02003072           JUNCTION      0.00  1513.33     0  02:27           0        14.9       0.140
  WS02003073           JUNCTION      1.82  1515.45     0  02:27      0.0524        14.9       0.145
  WS02004138           JUNCTION      0.00   190.00     0  00:29           0        5.25       0.053
  WS02004139           JUNCTION      0.32   190.32     0  00:31     0.00924        5.26       0.508
  WS02004401           JUNCTION      0.00  1315.38     0  02:25           0         9.2       0.123
  WS02004402           JUNCTION      0.00  1315.40     0  02:25           0        9.19       0.120
  WS02004403           JUNCTION      0.00  1315.53     0  02:25           0        9.18       0.118
  WS02004404           JUNCTION      0.16  1315.24     0  02:25     0.00467        9.17       0.097
  WS02004405           JUNCTION      0.04  1316.79     0  02:25      0.0011        9.17       0.138
  WS02004406           JUNCTION      0.00  1316.16     0  02:25           0        9.15       0.235
  WS02004407           JUNCTION      0.00  1316.18     0  02:25           0        9.12       0.015
  WS02004409           JUNCTION      0.00  1315.03     0  02:25           0        9.12       0.033
  WS02004410           JUNCTION      0.00  1315.37     0  02:25           0        9.12       0.052
  WS02004411           JUNCTION      0.00  1315.10     0  02:25           0        9.11       0.065
  WS02004412           JUNCTION      0.00  1315.13     0  02:25           0        9.11       0.088
  WS02004413           JUNCTION      0.00  1314.96     0  02:25           0         9.1       0.153
  WS02006109           JUNCTION      1.23  1308.01     0  00:00      0.0354        8.96       0.129
  WS02006110           JUNCTION      0.00  1121.80     0  02:37           0        8.72      -0.405
  WS02006111           JUNCTION      0.00  1176.04     0  00:00           0        8.75      -0.429
  WS02006112           JUNCTION    321.50  2307.30     0  00:00       0.434        9.22      -0.003
  WS02006113           JUNCTION      0.00  1121.73     0  02:37           0        8.71      -0.514
  WS02006115           JUNCTION      0.00  2152.75     0  00:00           0         9.2       0.047
  WS02006116           JUNCTION      0.00  1315.47     0  02:25           0         9.2       0.028
  WS02006228           JUNCTION      0.00  1289.39     0  02:23           0        8.91       0.069
  WS02006229           JUNCTION      0.00  2307.51     0  02:23           0        10.9       0.097
  WS02006230           JUNCTION     10.28  1026.64     0  02:23       0.296        5.09       0.100
  WS02006231           JUNCTION      0.00   454.08     0  02:16           0        4.01      -0.120
  WS02006232           JUNCTION      0.00   453.43     0  02:40           0        4.01       0.107
  WS02006234           JUNCTION      0.00   453.08     0  02:40           0           4      -0.046
  WS02006235           JUNCTION      0.00   414.78     0  02:30           0        3.94       0.065
  WS02006238           JUNCTION      0.00   415.14     0  02:32           0        3.51      -0.101
  WS02006239           JUNCTION      0.00   414.77     0  02:14           0         3.5      -0.275
  WS02006240           JUNCTION      0.00   414.63     0  02:32           0         3.5       0.001
  WS02006242           JUNCTION      0.00   414.70     0  02:14           0         3.5       0.031
  WS02006243           JUNCTION      0.00   379.99     0  04:43           0        3.18      -0.193
  WS02006245           JUNCTION      0.00   390.32     0  04:43           0        3.19       0.279
  WS02006247           JUNCTION      0.00   393.60     0  04:42           0        3.19       0.032
  WS02006248           JUNCTION      0.00   401.34     0  04:42           0         3.4      -0.070
  WS02006249           JUNCTION      0.00  1367.06     0  02:25           0        5.71       0.120
  WS02006251           JUNCTION      0.08  1655.47     0  02:25     0.00222        5.84       0.005
  WS02006252           JUNCTION      0.00   489.02     0  02:25           0        2.89      -0.310
  WS02006253           JUNCTION     36.31  1654.76     0  02:25      0.0442        3.14       0.013
  WS02006256           JUNCTION      0.00   300.00     0  01:35           0       0.919       0.113
  WS02006280           JUNCTION      0.00  2306.26     0  02:23           0        7.81      -0.001
  WS02006284           JUNCTION      0.10  2305.17     0  02:23     0.00275        7.81       0.011
  WS02006287           JUNCTION      0.00  2305.49     0  02:23           0        7.81       0.010
  WSF200               JUNCTION      0.00  1315.89     0  02:25           0        9.08       0.007
  YS02001580           JUNCTION      0.00    79.58     0  02:14           0     0.00409       1.012
  YS02001583           JUNCTION      0.00   140.77     0  02:14           0      0.0152      -4.569
  YS02001586           JUNCTION    700.20   700.20     0  02:26        1.45        1.46       0.082
  YS02001590           JUNCTION      0.00   317.95     0  02:21           0        1.19      -0.019
  YS02001593           JUNCTION      0.00   318.05     0  02:21           0        1.19       0.011
  YS02001596           JUNCTION      0.00   317.95     0  02:36           0        1.19      -0.013
  YS02001600           JUNCTION      0.00   318.01     0  02:21           0        1.19       0.005
  YS02001601           JUNCTION   1254.84  1572.50     0  02:25        2.03        3.21       0.032
  YS02001602           JUNCTION      0.00   501.01     0  02:13           0         2.1       0.024
  YS02001605           JUNCTION      0.00   500.65     0  02:13           0        2.02       0.033
  YS02001607           JUNCTION      0.00   500.02     0  02:14           0        2.02       0.092
  YS02001610           JUNCTION      0.00   667.40     0  02:26           0        2.16       0.109
  YS02001613           JUNCTION      0.00   502.19     0  02:13           0        1.81       0.092
  YS02001616           JUNCTION      0.00   502.55     0  02:13           0        1.81       0.021
  YS02001619           JUNCTION   1251.16  1251.16     0  02:26        2.32        3.98       0.001
  YS02001622           JUNCTION      0.00   938.35     0  02:25           0        3.83       0.002
  YS02001625           JUNCTION      0.00  1277.56     0  02:26           0        3.95       0.352
  YS02001629           JUNCTION      0.00   933.08     0  02:18           0        3.31      -0.065
  YS02001633           JUNCTION    945.50  1383.85     0  02:18        1.48        4.64       0.073
  YS02001641           JUNCTION      0.00  1382.56     0  02:18           0         4.5       0.059
  YS02001644           JUNCTION    848.73  1799.15     0  02:19        1.28        5.78       0.056
  YS02001647           JUNCTION      0.00  1799.27     0  02:19           0        5.58       0.005
  YS02001649           JUNCTION      0.00  2097.12     0  02:18           0        6.75       0.002
  YS02001652           JUNCTION      0.00   851.14     0  02:25           0        1.16      -0.110
  YS02001655           JUNCTION      0.15   850.61     0  02:25     0.00443        1.16       0.027
  YS02001658           JUNCTION      0.00   850.75     0  02:25           0        1.16      -0.036
  YS02001661           JUNCTION      0.00   886.22     0  02:23           0        1.16      -0.006
  YS02001664           JUNCTION    841.93   841.93     0  02:25        1.16        1.16      -0.006
  YS02001745           JUNCTION    535.02   535.02     0  02:25       0.707       0.707       0.242
  YS02001748           JUNCTION      0.04   543.10     0  02:25      0.0013       0.706      -0.428
  YS02001751           JUNCTION      0.01   543.94     0  02:25    0.000317       0.712       0.123
  YS02001754           JUNCTION      0.26   543.95     0  02:25     0.00749       0.721      -0.148
  YS02001757           JUNCTION      0.00  3542.18     0  02:24           0        9.88       0.015
  YS02001759           JUNCTION    743.84  1435.62     0  02:25       0.974        2.41      -0.003
  YS02001762           JUNCTION      0.00   813.80     0  02:28           0        1.44       0.014
  YS02001765           JUNCTION      0.00   810.81     0  02:28           0        1.44       0.026
  YS02001767           JUNCTION      0.54   810.59     0  02:28      0.0154        1.44       0.014
  YS02001770           JUNCTION   1041.79  1041.79     0  02:25        1.49        1.55       0.002
  YS02001774           JUNCTION      0.00   354.74     0  02:25           0       0.156       0.740
  YS02001779           JUNCTION      0.01   354.93     0  02:25    0.000144       0.102      -0.449
  YS02001783           JUNCTION      0.00  1163.55     0  02:25           0        3.65       0.005
  YS02001784           JUNCTION      1.06  1164.75     0  02:24      0.0305        3.68       0.015
  YS02001786           JUNCTION      0.06  1164.81     0  02:23     0.00162        3.68       0.017
  YS02001788           JUNCTION      0.07  1165.51     0  02:23     0.00204        3.68       0.008
  YS02001790           JUNCTION      0.15  1179.01     0  02:24     0.00446        3.69       0.017
  YS02001791           JUNCTION      0.00  1293.72     0  02:24           0        3.68      -0.015
  YS02001793           JUNCTION      0.00  1253.67     0  02:23           0        3.69      -0.000
  YS02001882           JUNCTION      0.00    39.78     0  02:16           0      0.0125       4.348
  YS02001884           JUNCTION      0.00    52.83     0  02:16           0       0.048       5.381
  YS02001887           JUNCTION    801.46   801.46     0  02:25        1.02        1.06       0.420
  YS02001890           JUNCTION      0.00   802.90     0  02:25           0        1.02       0.496
  YS02001895           JUNCTION      0.00   517.41     0  02:28           0       0.942       0.147
  YS02001898           JUNCTION      0.00   518.08     0  02:25           0       0.941       0.039
  YS02001901           JUNCTION      0.00   517.68     0  02:25           0       0.943       0.336
  YS02001904           JUNCTION      0.00   517.44     0  02:25           0       0.947       0.295
  YS02001907           JUNCTION      0.00  1891.63     0  02:25           0        3.19       0.571
  YS02001910           JUNCTION      0.00  1374.04     0  02:25           0        2.25       0.316
  YS02001915           JUNCTION    914.30  1374.04     0  02:25        1.42        2.28       0.068
  YS02001918           JUNCTION      0.00   464.28     0  02:25           0       0.884       0.014
  YS02001920           JUNCTION      2.87   463.86     0  02:25      0.0827        0.87       0.105
  YS02001923           JUNCTION      0.04   459.00     0  02:25     0.00109       0.773       0.009
  YS02001926           JUNCTION      0.05   457.91     0  02:25      0.0015       0.755      -0.039
  YS02001929           JUNCTION    443.43   443.43     0  02:26       0.746       0.747      -0.055
  YS02006553           JUNCTION      0.00   806.22     0  02:38           0         2.2       0.537
  YS02006556           JUNCTION      0.00   807.57     0  02:38           0        2.21       0.361
  YS02006558           JUNCTION   1072.40  1165.44     0  02:23         1.5        3.68       0.095
  YS02006561           JUNCTION      0.00  1163.67     0  02:23           0        3.65      -0.000
  YS02163301           JUNCTION      0.00   932.95     0  02:18           0         3.3       0.042
  YS02163601           JUNCTION      0.11  1383.45     0  02:18     0.00317         4.5       0.103
  YS02164001           JUNCTION      0.00  1383.43     0  02:18           0         4.5       0.043
  YSB1154              JUNCTION    429.60   429.60     0  02:25       0.617       0.617       0.239
  YSB1171              JUNCTION      0.00  1027.50     0  02:25           0        1.17       0.558
  YSB1174              JUNCTION    376.93   376.93     0  02:25       0.469        0.47       0.276
  YSB6556              JUNCTION      0.00   429.30     0  02:25           0       0.618       0.200
  CC-1                 OUTFALL       0.00   683.00     0  02:20           0        3.58       0.000
  CC-2                 OUTFALL       0.00   683.00     0  00:20           0        6.17       0.000
  JK-1                 OUTFALL       0.00  1000.00     0  00:05           0        2.43       0.000
  JK-2                 OUTFALL       0.00  1000.00     0  02:20           0        1.85       0.000
  WSC                  OUTFALL       0.00  1515.93     0  02:28           0        14.9       0.000
  CC-storage           STORAGE       0.00  3541.36     0  02:24           0        12.1      -3.606
  JK-storage           STORAGE       0.00  1282.44     0  02:30           0        3.84     -26.920
  XR-storage           STORAGE     200.00   200.00     0  00:00        5.76        6.36       0.001
  
  
  **********************
  Node Surcharge Summary
  **********************
  
  Surcharging occurs when water rises above the top of the highest conduit.
  ---------------------------------------------------------------------
                                               Max. Height   Min. Depth
                                   Hours       Above Crown    Below Rim
  Node                 Type      Surcharged         Meters       Meters
  ---------------------------------------------------------------------
  HS02004478           JUNCTION        0.40          0.668        0.272
  HS02004479           JUNCTION        0.52          0.893        0.157
  HS02004480           JUNCTION        0.56          0.957        0.143
  HS02004770           JUNCTION        0.47          0.720        0.000
  HS02004777           JUNCTION        0.48          0.780        0.000
  HS02004785           JUNCTION        0.43          0.790        0.000
  HS02004788           JUNCTION        0.42          0.720        0.000
  HS02004792           JUNCTION        0.53          0.900        0.000
  HS02004799           JUNCTION        0.65          1.060        0.000
  HS02004802           JUNCTION        0.57          1.090        0.120
  HS02004807           JUNCTION        0.56          1.220        0.000
  HS02004817           JUNCTION        1.09          1.688        0.052
  HS02004824           JUNCTION        0.42          1.280        0.030
  HS02004830           JUNCTION        0.39          1.299        0.031
  HS02004837           JUNCTION        0.36          1.288        0.052
  HS02004842           JUNCTION        0.49          1.520        0.000
  HS02004848           JUNCTION        0.31          1.370        0.000
  HS02004852           JUNCTION        0.33          1.420        0.000
  HS02004856           JUNCTION        0.31          1.300        0.000
  HS02004862           JUNCTION        0.35          1.300        0.000
  HS02004870           JUNCTION        0.37          1.400        0.000
  HS02004876           JUNCTION        0.42          1.516        0.044
  HS02004881           JUNCTION        0.40          1.450        0.000
  HS02004901           JUNCTION        0.48          0.720        0.000
  WS02004401           JUNCTION        1.47          1.187        0.473
  WS02004402           JUNCTION        1.55          1.168        0.572
  WS02004403           JUNCTION        1.56          0.968        1.062
  WS02004404           JUNCTION        1.66          0.758        2.022
  WS02004405           JUNCTION        1.64          0.705        2.095
  WS02004406           JUNCTION        1.62          0.595        1.855
  WS02004409           JUNCTION        0.91          0.400        1.960
  WS02004410           JUNCTION        0.85          0.309        2.231
  WS02004411           JUNCTION        0.75          0.213        2.317
  WS02004412           JUNCTION        0.67          0.111        2.199
  WS02004413           JUNCTION        1.24          0.149        2.051
  WS02006109           JUNCTION        1.92          1.820        0.000
  WS02006110           JUNCTION        1.80          1.850        0.000
  WS02006111           JUNCTION        1.18          1.332        0.538
  WS02006112           JUNCTION        1.85          1.680        0.000
  WS02006113           JUNCTION        1.21          1.665        0.265
  WS02006115           JUNCTION        1.39          1.079        1.171
  WS02006116           JUNCTION        1.40          1.006        1.284
  WS02006228           JUNCTION        1.92          2.200        0.000
  WS02006229           JUNCTION        0.78          1.070        0.000
  WS02006230           JUNCTION        1.68          1.570        0.000
  WS02006231           JUNCTION        1.72          1.492        0.038
  WS02006232           JUNCTION        1.85          1.480        0.000
  WS02006234           JUNCTION        1.79          1.240        0.000
  WS02006235           JUNCTION        1.81          1.255        0.035
  WS02006238           JUNCTION        1.81          1.258        0.172
  WS02006239           JUNCTION        1.79          1.214        0.076
  WS02006240           JUNCTION        1.76          1.199        0.191
  WS02006242           JUNCTION        1.78          0.820        0.000
  WS02006243           JUNCTION        1.69          0.671        0.099
  WS02006245           JUNCTION        1.65          0.566        0.284
  WS02006247           JUNCTION        1.66          0.587        0.173
  WS02006248           JUNCTION        1.59          0.380        0.000
  WS02006249           JUNCTION        1.61          0.390        0.000
  WS02006251           JUNCTION        1.36          1.180        0.000
  WS02006252           JUNCTION        1.58          1.100        0.000
  WS02006253           JUNCTION        1.37          2.443        0.037
  WS02006256           JUNCTION        5.56          2.050        0.000
  WS02006280           JUNCTION        0.67          0.719        0.061
  WS02006284           JUNCTION        0.59          0.666        0.134
  WS02006287           JUNCTION        0.50          0.738        0.152
  YS02001580           JUNCTION        0.51          0.450        0.000
  YS02001583           JUNCTION        0.52          0.500        0.000
  YS02001586           JUNCTION        0.63          0.510        0.000
  YS02001590           JUNCTION        0.70          0.750        0.000
  YS02001593           JUNCTION        0.70          0.840        0.000
  YS02001596           JUNCTION        0.82          1.070        0.000
  YS02001600           JUNCTION        0.99          1.190        0.000
  YS02001601           JUNCTION        1.49          1.440        0.000
  YS02001602           JUNCTION        1.39          1.270        0.000
  YS02001605           JUNCTION        1.35          1.180        0.000
  YS02001607           JUNCTION        0.69          0.680        0.000
  YS02001610           JUNCTION        0.73          0.680        0.000
  YS02001613           JUNCTION        0.69          0.700        0.000
  YS02001616           JUNCTION        0.63          0.610        0.000
  YS02001619           JUNCTION        0.62          0.610        0.000
  YS02001622           JUNCTION        0.62          0.568        0.052
  YS02001625           JUNCTION        0.88          0.780        0.000
  YS02001629           JUNCTION        0.57          0.470        0.000
  YS02001633           JUNCTION        1.14          1.060        0.000
  YS02001641           JUNCTION        1.11          0.974        0.126
  YS02001644           JUNCTION        1.10          0.920        0.000
  YS02001647           JUNCTION        0.49          0.785        0.115
  YS02001649           JUNCTION        1.04          1.008        0.042
  YS02001652           JUNCTION        0.36          0.909        0.221
  YS02001655           JUNCTION        0.24          0.655        0.545
  YS02001658           JUNCTION        0.14          1.240        0.060
  YS02001661           JUNCTION        0.01          0.073        1.317
  YS02001748           JUNCTION        0.07          0.355        0.835
  YS02001751           JUNCTION        0.16          0.469        0.731
  YS02001754           JUNCTION        0.26          0.629        0.521
  YS02001757           JUNCTION        1.12          0.945        0.265
  YS02001759           JUNCTION        1.03          0.935        0.275
  YS02001762           JUNCTION        1.00          0.932        0.218
  YS02001765           JUNCTION        0.85          0.906        0.194
  YS02001767           JUNCTION        0.47          0.889        0.141
  YS02001770           JUNCTION        0.37          0.897        0.023
  YS02001774           JUNCTION        0.99          0.982        0.068
  YS02001779           JUNCTION        0.26          0.680        0.000
  YS02001783           JUNCTION        0.46          0.519        1.081
  YS02001784           JUNCTION        0.44          0.357        1.133
  YS02001786           JUNCTION        0.34          0.110        1.320
  YS02001882           JUNCTION        0.41          0.648        0.182
  YS02001884           JUNCTION        0.42          0.687        0.183
  YS02001887           JUNCTION        0.46          0.777        0.173
  YS02001890           JUNCTION        0.47          0.760        0.000
  YS02001895           JUNCTION        0.40          0.628        0.122
  YS02001898           JUNCTION        0.39          0.641        0.099
  YS02001901           JUNCTION        0.44          0.784        0.086
  YS02001904           JUNCTION        0.43          0.717        0.133
  YS02001907           JUNCTION        0.69          0.950        0.000
  YS02001910           JUNCTION        0.49          0.964        0.136
  YS02001915           JUNCTION        0.41          0.906        0.094
  YS02001918           JUNCTION        0.33          0.810        0.000
  YS02001920           JUNCTION        0.34          1.105        0.035
  YS02001923           JUNCTION        0.08          0.806        0.014
  YS02001926           JUNCTION        0.10          0.900        0.000
  YS02001929           JUNCTION        0.01          0.780        0.000
  YS02006553           JUNCTION        0.71          1.015        0.175
  YS02006556           JUNCTION        0.59          0.974        0.376
  YS02006558           JUNCTION        0.57          0.929        0.471
  YS02006561           JUNCTION        0.30          0.223        0.927
  YS02163301           JUNCTION        1.03          0.924        0.106
  YS02163601           JUNCTION        1.20          1.065        0.015
  YS02164001           JUNCTION        1.11          0.986        0.114
  YSB1154              JUNCTION        0.76          1.229        0.171
  YSB1171              JUNCTION        0.76          1.100        0.000
  YSB1174              JUNCTION        0.69          1.114        0.136
  YSB6556              JUNCTION        0.63          1.047        0.053
  
  
  *********************
  Node Flooding Summary
  *********************
  
  Flooding refers to all water that overflows a node, whether it ponds or not.
  --------------------------------------------------------------------------
                                                             Total   Maximum
                                 Maximum   Time of Max       Flood    Ponded
                        Hours       Rate    Occurrence      Volume     Depth
  Node                 Flooded       LPS   days hr:min    10^6 ltr    Meters
  --------------------------------------------------------------------------
  HS02004770              0.32   1135.39      0  02:25       0.591     0.000
  HS02004777              0.01      7.68      0  02:15       0.000     0.000
  HS02004785              0.01      0.71      0  02:16       0.000     0.000
  HS02004788              0.01    281.22      0  02:15       0.001     0.000
  HS02004792              0.31   1665.56      0  02:25       0.954     0.000
  HS02004799              0.17    226.88      0  02:24       0.078     0.000
  HS02004807              0.08    303.53      0  02:25       0.049     0.000
  HS02004842              0.01    139.10      0  02:19       0.001     0.000
  HS02004848              0.01    421.28      0  02:19       0.001     0.000
  HS02004852              0.01    180.74      0  02:18       0.000     0.000
  HS02004856              0.01    289.42      0  02:18       0.000     0.000
  HS02004862              0.01    322.73      0  02:18       0.001     0.000
  HS02004870              0.01    102.17      0  02:18       0.000     0.000
  HS02004881              0.01     94.74      0  02:18       0.000     0.000
  HS02004901              0.37    656.85      0  02:25       0.573     0.000
  WS02006109              0.35    294.62      0  02:25       0.212     0.000
  WS02006110              0.01      0.19      0  02:16       0.000     0.000
  WS02006112              0.01   1153.65      0  00:00       0.035     0.000
  WS02006228              0.01      0.54      0  02:16       0.000     0.000
  WS02006229              0.01      0.62      0  02:16       0.000     0.000
  WS02006230              0.60    573.89      0  02:23       0.800     0.000
  WS02006232              0.16      1.70      0  02:16       0.000     0.000
  WS02006234              0.67    128.44      0  02:26       0.200     0.000
  WS02006242              0.72    136.95      0  02:32       0.315     0.000
  WS02006248              1.07    338.98      0  02:20       1.050     0.000
  WS02006249              1.35   1306.13      0  02:25       3.127     0.000
  WS02006251              0.01     26.13      0  02:18       0.000     0.000
  WS02006252              0.25    488.85      0  02:25       0.191     0.000
  WS02006256              0.63    296.69      0  02:10       0.365     0.000
  YS02001580              0.01     50.19      0  02:14       0.000     0.000
  YS02001583              0.01     64.01      0  02:14       0.000     0.000
  YS02001586              0.40    382.46      0  02:26       0.257     0.000
  YS02001590              0.01      5.94      0  02:14       0.000     0.000
  YS02001593              0.01      0.11      0  02:16       0.000     0.000
  YS02001596              0.01      0.24      0  02:16       0.000     0.000
  YS02001600              0.01      1.71      0  02:14       0.000     0.000
  YS02001601              0.56   1174.63      0  02:25       1.109     0.000
  YS02001602              0.43     61.94      0  02:31       0.085     0.000
  YS02001605              0.01      0.28      0  02:16       0.000     0.000
  YS02001607              0.01      0.48      0  02:16       0.000     0.000
  YS02001610              0.37    667.34      0  02:26       0.493     0.000
  YS02001613              0.01      0.75      0  02:16       0.000     0.000
  YS02001616              0.01      0.95      0  02:16       0.000     0.000
  YS02001619              0.01      1.68      0  02:16       0.000     0.000
  YS02001625              0.32   1277.40      0  02:26       0.764     0.000
  YS02001629              0.09    161.95      0  02:23       0.032     0.000
  YS02001633              0.01      0.11      0  02:16       0.000     0.000
  YS02001644              0.12    693.69      0  02:25       0.183     0.000
  YS02001779              0.11    354.25      0  02:25       0.077     0.000
  YS02001890              0.15    286.98      0  02:25       0.070     0.000
  YS02001907              0.29   1777.43      0  02:25       0.980     0.000
  YS02001918              0.01     76.65      0  02:19       0.001     0.000
  YS02001926              0.01     17.15      0  02:19       0.000     0.000
  YS02001929              0.01    293.30      0  02:19       0.001     0.000
  YSB1171                 0.24   1027.30      0  02:25       0.487     0.000
  
  
  **********************
  Storage Volume Summary
  **********************
  
  ------------------------------------------------------------------------------------------------
                         Average    Avg   Evap  Exfil     Maximum    Max    Time of Max    Maximum
                          Volume   Pcnt   Pcnt   Pcnt      Volume   Pcnt     Occurrence    Outflow
  Storage Unit           1000 m   Full   Loss   Loss     1000 m   Full    days hr:min        LPS
  ------------------------------------------------------------------------------------------------
  CC-storage               2.318   36.2    0.0    0.0       5.526   86.2       0  03:15    1766.00
  JK-storage               0.004    1.4    0.0    0.0       0.151   51.7       0  00:05    2300.00
  XR-storage               0.949   65.9    0.0    0.0       1.111   77.1       0  08:00     190.00
  
  
  ***********************
  Outfall Loading Summary
  ***********************
  
  -----------------------------------------------------------
                         Flow       Avg       Max       Total
                         Freq      Flow      Flow      Volume
  Outfall Node           Pcnt       LPS       LPS    10^6 ltr
  -----------------------------------------------------------
  CC-1                  40.08    455.71    683.00       3.585
  CC-2                  48.80    465.79    683.00       6.171
  JK-1                  70.91    142.68   1000.00       2.434
  JK-2                  32.57    214.74   1000.00       1.854
  WSC                  100.00    596.21   1515.93      14.888
  -----------------------------------------------------------
  System                58.47   1875.13   4192.89      28.932
  
  
  ********************
  Link Flow Summary
  ********************
  
  -----------------------------------------------------------------------------
                                 Maximum  Time of Max   Maximum    Max/    Max/
                                  |Flow|   Occurrence   |Veloc|    Full    Full
  Link                 Type          LPS  days hr:min     m/sec    Flow   Depth
  -----------------------------------------------------------------------------
  1                    CONDUIT   1515.93     0  02:28      3.70    0.53    0.52
  HS02004478WS02006287 CONDUIT   2305.49     0  02:23      2.61    0.65    1.00
  HS02004479HS02004480 CONDUIT    406.17     0  02:19      0.58    0.39    1.00
  HS02004480HS02004478 CONDUIT   2077.49     0  02:17      2.97    8.75    1.00
  HS02004770HS02004777 CONDUIT    726.46     0  02:15      1.04    1.33    1.00
  HS02004777HS02004785 CONDUIT    740.26     0  02:15      1.12    0.91    1.00
  HS02004785HS02004788 CONDUIT    679.70     0  02:15      1.35    5.12    1.00
  HS02004788HS02004792 CONDUIT    829.44     0  02:16      1.45    0.55    1.00
  HS02004792HS02004799 CONDUIT   1574.80     0  02:16      2.25    0.96    1.00
  HS02004799HS02004480 CONDUIT   1727.51     0  02:16      2.47    2.18    1.00
  HS02004802HS02004478 CONDUIT   1232.94     0  02:26      1.76    1.09    1.00
  HS02004807HS02004802 CONDUIT   1233.26     0  02:26      1.76    2.35    1.00
  HS02004817HS02004807 CONDUIT   1064.67     0  02:25      1.52    0.63    1.00
  HS02004817HS02004824 CONDUIT   1063.45     0  02:25      1.52    0.48    1.00
  HS02004824HS02004830 CONDUIT    600.60     0  02:16      0.86    0.79    1.00
  HS02004830HS02004837 CONDUIT    603.90     0  02:16      0.95    0.60    1.00
  HS02004837HS02004842 CONDUIT    791.64     0  02:17      1.13    0.47    1.00
  HS02004842HS02004848 CONDUIT    792.20     0  02:17      1.25    0.46    1.00
  HS02004848HS02004852 CONDUIT   1018.09     0  02:18      1.58    1.15    1.00
  HS02004852HS02004856 CONDUIT    984.77     0  02:18      1.46    1.13    1.00
  HS02004856HS02004862 CONDUIT   1055.58     0  02:18      1.69    1.05    1.00
  HS02004862HS02004870 CONDUIT   1139.07     0  02:18      1.90    1.23    1.00
  HS02004870HS02004876 CONDUIT   1229.65     0  02:25      1.77    0.82    1.00
  HS02004876HS02004881 CONDUIT   1479.55     0  02:25      2.39   15.74    1.00
  HS02004881HS02006253 CONDUIT   1618.75     0  02:25      2.31    0.32    1.00
  HS02004901HS02004770 CONDUIT    265.79     0  02:35      0.38    1.00    1.00
  WS02001211WS02001212 CONDUIT    211.84     0  02:57      0.54    0.16    0.69
  WS02001212WS02001213 CONDUIT    217.13     0  02:57      1.04    0.33    0.56
  WS02001213WS02003059 CONDUIT    222.51     0  02:56      0.47    0.37    0.90
  WS02003059WS02003060 CONDUIT    229.64     0  02:57      0.66    0.15    0.81
  WS02003060WS02003069 CONDUIT   1513.39     0  02:26      2.09    0.59    0.61
  WS02003066WSF200     CONDUIT   1315.89     0  02:25      3.25    0.22    0.39
  WS02003067WS02003066 CONDUIT   1315.73     0  02:25      2.01    0.42    0.56
  WS02003069WS02003072 CONDUIT   1513.33     0  02:27      1.90    0.73    0.66
  WS02003072WS02003073 CONDUIT   1513.63     0  02:27      2.06    3.27    0.62
  WS02004138WS02004139 CONDUIT    190.00     0  00:31      2.17    0.04    0.42
  WS02004139WS02001211 CONDUIT    197.39     0  02:57      0.55    0.25    0.61
  WS02004401WS02004402 CONDUIT   1315.40     0  02:25      2.07    1.58    1.00
  WS02004402WS02004403 CONDUIT   1315.53     0  02:25      1.84    1.89    1.00
  WS02004403WS02004404 CONDUIT   1315.08     0  02:25      1.68    0.95    1.00
  WS02004404WS02004405 CONDUIT   1316.76     0  02:25      1.86   12.90    1.00
  WS02004405WS02004406 CONDUIT   1316.16     0  02:25      1.80    2.60    1.00
  WS02004406WS02004407 CONDUIT   1316.18     0  02:25      1.71    0.59    0.98
  WS02004407WS02004409 CONDUIT   1315.03     0  02:25      1.75    0.47    0.98
  WS02004409WS02004410 CONDUIT   1315.37     0  02:25      1.67    1.70    1.00
  WS02004410WS02004411 CONDUIT   1315.10     0  02:25      1.67    1.80    1.00
  WS02004411WS02004412 CONDUIT   1315.13     0  02:25      1.67    1.87    1.00
  WS02004412WS02004413 CONDUIT   1314.96     0  02:25      1.67    0.88    1.00
  WS02004413WS02003067 CONDUIT   1314.91     0  02:25      2.03    0.56    0.77
  WS02006109WS02006110 CONDUIT   1306.78     0  00:00      3.15    2.51    1.00
  WS02006110WS02006113 CONDUIT   1121.73     0  02:37      2.23    1.02    1.00
  WS02006111WS02006112 CONDUIT   2307.30     0  00:00      9.18    1.10    1.00
  WS02006112WS02006115 CONDUIT   2152.75     0  00:00      2.85    1.27    1.00
  WS02006113WS02006111 CONDUIT   1176.04     0  00:00      2.68    1.41    1.00
  WS02006115WS02006116 CONDUIT   1315.47     0  02:25      1.81    1.69    1.00
  WS02006116WS02004401 CONDUIT   1315.38     0  02:25      2.21    1.81    1.00
  WS02006228WS02006109 CONDUIT   1289.19     0  02:23      2.56    5.63    1.00
  WS02006229WS02006228 CONDUIT   1289.39     0  02:23      2.57    4.27    1.00
  WS02006230WS02006229 CONDUIT   1016.36     0  02:23      2.64   22.62    1.00
  WS02006231WS02006230 CONDUIT    454.08     0  02:16      1.34    6.89    1.00
  WS02006232WS02006231 CONDUIT    453.43     0  02:40      1.18    0.95    1.00
  WS02006234WS02006232 CONDUIT    453.08     0  02:40      1.18    0.92    1.00
  WS02006235WS02006234 CONDUIT    413.62     0  02:35      1.07    4.36    1.00
  WS02006238WS02006235 CONDUIT    415.14     0  02:32      1.23    0.93    1.00
  WS02006239WS02006238 CONDUIT    414.77     0  02:14      1.08    1.33    1.00
  WS02006240WS02006239 CONDUIT    414.63     0  02:32      1.09    1.30    1.00
  WS02006242WS02006240 CONDUIT    414.70     0  02:14      1.08    1.65    1.00
  WS02006243WS02006242 CONDUIT    371.10     0  05:10      1.14    0.79    1.00
  WS02006245WS02006243 CONDUIT    379.99     0  04:43      1.21    1.12    1.00
  WS02006247WS02006245 CONDUIT    390.32     0  04:43      1.19    3.09    1.00
  WS02006248WS02006247 CONDUIT    393.60     0  04:42      1.23    0.86    1.00
  WS02006249WS02006248 CONDUIT    401.34     0  04:42      1.27    2.20    1.00
  WS02006251WS02006249 CONDUIT   1367.06     0  02:25      3.55    3.94    1.00
  WS02006252WS02006251 CONDUIT   1298.45     0  00:05     20.66    4.77    1.00
  WS02006253WS02006251 CONDUIT   1655.39     0  02:25      4.30    4.96    1.00
  WS02006256WS02006235 CONDUIT    174.73     0  01:48      2.47    1.85    1.00
  WS02006280WS02006229 CONDUIT   2307.51     0  02:23      3.78    0.49    1.00
  WS02006284WS02006280 CONDUIT   2306.26     0  02:23      3.02    0.97    1.00
  WS02006287WS02006284 CONDUIT   2305.07     0  02:23      2.93    1.07    1.00
  WSF200WS02003060     CONDUIT   1315.85     0  02:26      2.30    0.29    0.51
  YS02001580YS02001583 CONDUIT     79.58     0  02:14      0.57    0.31    1.00
  YS02001583YS02001586 CONDUIT    140.77     0  02:14      0.59    0.21    1.00
  YS02001586YS02001590 CONDUIT    317.95     0  02:21      1.25    0.56    1.00
  YS02001590YS02001593 CONDUIT    318.05     0  02:21      1.12    2.00    1.00
  YS02001593YS02001596 CONDUIT    317.95     0  02:36      1.66    0.50    1.00
  YS02001596YS02001600 CONDUIT    318.01     0  02:21      1.12    0.62    1.00
  YS02001600YS02001601 CONDUIT    317.93     0  02:37      1.12    0.55    1.00
  YS02001601YS02001602 CONDUIT    501.01     0  02:13      1.77    1.81    1.00
  YS02001602YS02001605 CONDUIT    500.65     0  02:13      1.77   10.59    1.00
  YS02001605YS02001607 CONDUIT    500.02     0  02:14      1.77    2.74    1.00
  YS02001607YS02001610 CONDUIT    501.12     0  02:13      0.64    0.48    1.00
  YS02001610YS02001613 CONDUIT    502.19     0  02:13      0.64    0.58    1.00
  YS02001613YS02001616 CONDUIT    502.55     0  02:13      0.65    0.43    1.00
  YS02001616YS02001619 CONDUIT    501.49     0  02:14      0.66    0.87    1.00
  YS02001619YS02001622 CONDUIT    938.35     0  02:25      1.19    1.38    1.00
  YS02001622YS02001625 CONDUIT    937.75     0  02:25      1.19    0.50    1.00
  YS02001625YS02001629 CONDUIT    933.08     0  02:18      1.19    0.44    1.00
  YS02001629YS02163301 CONDUIT    932.95     0  02:18      1.19    1.15    1.00
  YS02001633YS02163601 CONDUIT   1383.34     0  02:18      1.76    1.45    1.00
  YS02001641YS02001644 CONDUIT   1382.40     0  02:18      1.76    4.47    1.00
  YS02001644YS02001647 CONDUIT   1799.27     0  02:19      2.29    1.06    1.00
  YS02001647YS02001649 CONDUIT   1810.99     0  02:18      2.34    0.96    1.00
  YS02001649YS02001757 CONDUIT   2092.45     0  02:18      2.67    1.27    1.00
  YS02001652YS02001649 CONDUIT    850.96     0  02:25      1.08    0.42    1.00
  YS02001655YS02001652 CONDUIT    851.14     0  02:25      1.22    0.41    1.00
  YS02001658YS02001655 CONDUIT    850.46     0  02:25      1.86    0.36    1.00
  YS02001661YS02001658 CONDUIT    850.75     0  02:25      2.32    0.33    1.00
  YS02001664YS02001661 CONDUIT    886.22     0  02:23      2.32    0.28    0.74
  YS02001745YS02001748 CONDUIT    543.06     0  02:25      2.19    0.21    0.86
  YS02001748YS02001751 CONDUIT    543.93     0  02:25      1.67    0.27    1.00
  YS02001751YS02001754 CONDUIT    543.69     0  02:25      1.31    0.26    1.00
  YS02001754YS02001757 CONDUIT    543.63     0  02:25      0.69    0.22    1.00
  YS02001757CaochengTiaoxuchi CONDUIT   3541.36     0  02:24      6.17    1.53    1.00
  YS02001759YS02001757 CONDUIT   1434.39     0  02:25      1.83    1.02    1.00
  YS02001762YS02001759 CONDUIT    812.56     0  02:28      1.03    0.94    1.00
  YS02001765YS02001762 CONDUIT    813.80     0  02:28      1.04    0.76    1.00
  YS02001767YS02001765 CONDUIT    810.81     0  02:28      1.03    1.02    1.00
  YS02001770YS02001767 CONDUIT    810.06     0  02:28      1.03    3.21    1.00
  YS02001774YS02001770 CONDUIT    354.74     0  02:25      0.45    0.23    1.00
  YS02001779YS02001774 CONDUIT    354.93     0  02:25      0.45    0.18    1.00
  YS02001783YS02001784 CONDUIT   1163.69     0  02:24      2.32    1.60    1.00
  YS02001784YS02001785 CONDUIT   1164.75     0  02:23      2.32    2.71    1.00
  YS02001786YS02001788 CONDUIT   1165.44     0  02:23      2.48    2.25    0.89
  YS02001788YS02001790 CONDUIT   1178.86     0  02:24      2.72    0.87    0.84
  YS02001790YS02001791 CONDUIT   1293.72     0  02:24      3.42    1.41    0.71
  YS02001791YS02001793 CONDUIT   1253.67     0  02:23      6.81    0.54    0.43
  YS02001793JiankangQianchi CONDUIT   1282.44     0  02:30     23.83    0.10    0.58
  YS02001882YS02001884 CONDUIT     39.78     0  02:16      0.10    0.05    1.00
  YS02001884YS02001887 CONDUIT     52.83     0  02:16      0.07    0.07    1.00
  YS02001887YS02001890 CONDUIT    802.90     0  02:25      1.02    1.37    1.00
  YS02001890YS02001895 CONDUIT    517.41     0  02:28      0.66    0.24    1.00
  YS02001895YS02001898 CONDUIT    518.08     0  02:25      0.66    0.90    1.00
  YS02001898YS02001901 CONDUIT    517.68     0  02:25      0.66    0.33    1.00
  YS02001901YS02001904 CONDUIT    517.44     0  02:25      0.66    0.80    1.00
  YS02001904YS02001907 CONDUIT    517.49     0  02:26      0.66    0.18    1.00
  YS02001907YS02006553 CONDUIT    806.22     0  02:38      0.90    0.95    1.00
  YS02001910YS02001907 CONDUIT   1374.15     0  02:25      1.75    0.77    1.00
  YS02001915YS02001910 CONDUIT   1374.04     0  02:25      1.75    0.68    1.00
  YS02001918YS02001915 CONDUIT    464.36     0  02:25      0.59    0.26    1.00
  YS02001920YS02001918 CONDUIT    464.28     0  02:25      0.67    0.45    1.00
  YS02001923YS02001920 CONDUIT    460.99     0  02:25      0.69    0.21    1.00
  YS02001926YS02001923 CONDUIT    458.96     0  02:25      0.95    0.66    1.00
  YS02001929YS02001926 CONDUIT    457.86     0  02:25      1.09    0.22    1.00
  YS02006553YS02006556 CONDUIT    807.57     0  02:38      1.03    0.69    1.00
  YS02006556YS02006558 CONDUIT    809.65     0  02:38      1.03    0.64    1.00
  YS02006558YS02006561 CONDUIT   1163.67     0  02:23      4.12    2.57    1.00
  YS02006561YS02001783 CONDUIT   1163.55     0  02:25      2.31    0.60    1.00
  YS02163301YS02001633 CONDUIT    932.94     0  02:18      1.19    0.88    1.00
  YS02163601YS02164001 CONDUIT   1383.43     0  02:18      1.76    1.23    1.00
  YS02164001YS02001641 CONDUIT   1382.56     0  02:18      1.76    1.89    1.00
  YSB1154YSB6556       CONDUIT    429.30     0  02:25      1.12    0.77    1.00
  YSB1171HS02004479    CONDUIT    406.87     0  02:19      0.81    0.27    1.00
  YSB1174YSB1171       CONDUIT    377.09     0  02:25      0.98    0.58    1.00
  YSB6556YSB1171       CONDUIT    430.05     0  02:25      1.12    0.44    1.00
  CC-R1                PUMP       683.00     0  02:20              1.00
  CC-R2                PUMP       683.00     0  00:20              1.00
  CC-S1                PUMP       200.00     0  00:05              1.00
  CC-S2                PUMP       200.00     0  01:37              1.00
  JK-R1                PUMP      1000.00     0  00:05              1.00
  JK-R2                PUMP      1000.00     0  02:20              1.00
  JK-S                 PUMP       300.00     0  01:35              1.00
  XR-1                 PUMP        95.00     0  00:10              1.00
  XR-2                 PUMP        95.00     0  00:29              1.00
  XR-3                 PUMP         0.00     0  00:00              0.00
  XR-4                 PUMP         0.00     0  00:00              0.00
  
  
  ***************************
  Flow Classification Summary
  ***************************
  
  -------------------------------------------------------------------------------------
                      Adjusted    ---------- Fraction of Time in Flow Class ---------- 
                       /Actual         Up    Down  Sub   Sup   Up    Down  Norm  Inlet 
  Conduit               Length    Dry  Dry   Dry   Crit  Crit  Crit  Crit  Ltd   Ctrl  
  -------------------------------------------------------------------------------------
  1                       1.00   0.00  0.00  0.00  0.00  1.00  0.00  0.00  0.49  0.00
  HS02004478WS02006287    1.00   0.16  0.00  0.00  0.66  0.18  0.00  0.00  0.60  0.00
  HS02004479HS02004480    1.00   0.04  0.00  0.00  0.96  0.00  0.00  0.00  0.11  0.00
  HS02004480HS02004478    1.00   0.13  0.00  0.00  0.60  0.00  0.00  0.27  0.00  0.00
  HS02004770HS02004777    1.00   0.00  0.13  0.00  0.87  0.00  0.00  0.00  0.03  0.00
  HS02004777HS02004785    1.00   0.00  0.00  0.00  1.00  0.00  0.00  0.00  0.12  0.00
  HS02004785HS02004788    1.00   0.00  0.00  0.00  1.00  0.00  0.00  0.00  0.00  0.00
  HS02004788HS02004792    1.00   0.00  0.00  0.00  0.99  0.01  0.00  0.00  0.91  0.00
  HS02004792HS02004799    1.00   0.00  0.00  0.00  0.99  0.01  0.00  0.00  0.87  0.00
  HS02004799HS02004480    1.00   0.00  0.03  0.00  0.84  0.00  0.12  0.00  0.00  0.00
  HS02004802HS02004478    1.00   0.13  0.01  0.00  0.86  0.00  0.00  0.00  0.03  0.00
  HS02004807HS02004802    1.00   0.13  0.00  0.00  0.85  0.00  0.00  0.02  0.00  0.00
  HS02004817HS02004807    1.00   0.00  0.13  0.00  0.87  0.00  0.00  0.00  0.01  0.00
  HS02004817HS02004824    1.00   0.00  0.00  0.00  1.00  0.00  0.00  0.00  0.83  0.00
  HS02004824HS02004830    1.00   0.00  0.00  0.00  1.00  0.00  0.00  0.00  0.01  0.00
  HS02004830HS02004837    1.00   0.00  0.00  0.00  1.00  0.00  0.00  0.00  0.89  0.00
  HS02004837HS02004842    1.00   0.00  0.00  0.00  0.99  0.01  0.00  0.00  0.11  0.00
  HS02004842HS02004848    1.00   0.00  0.13  0.00  0.87  0.00  0.00  0.00  0.56  0.00
  HS02004848HS02004852    1.00   0.13  0.00  0.00  0.87  0.00  0.00  0.00  0.69  0.00
  HS02004852HS02004856    1.00   0.13  0.01  0.00  0.86  0.00  0.00  0.00  0.68  0.00
  HS02004856HS02004862    1.00   0.00  0.17  0.00  0.83  0.00  0.00  0.00  0.74  0.00
  HS02004862HS02004870    1.00   0.00  0.00  0.00  1.00  0.00  0.00  0.00  0.04  0.00
  HS02004870HS02004876    1.00   0.00  0.00  0.00  1.00  0.00  0.00  0.00  0.87  0.00
  HS02004876HS02004881    1.00   0.01  0.00  0.00  0.85  0.15  0.00  0.00  0.00  0.00
  HS02004881HS02006253    1.00   0.02  0.03  0.00  0.44  0.01  0.00  0.50  0.39  0.00
  HS02004901HS02004770    1.00   0.13  0.00  0.00  0.87  0.00  0.00  0.00  0.00  0.00
  WS02001211WS02001212    1.00   0.00  0.02  0.00  0.98  0.00  0.00  0.00  0.00  0.00
  WS02001212WS02001213    1.00   0.02  0.00  0.00  0.43  0.00  0.54  0.00  0.00  0.00
  WS02001213WS02003059    1.00   0.00  0.01  0.00  0.99  0.00  0.00  0.00  0.00  0.00
  WS02003059WS02003060    1.00   0.00  0.00  0.00  1.00  0.00  0.00  0.00  0.03  0.00
  WS02003060WS02003069    1.00   0.00  0.00  0.00  0.97  0.03  0.00  0.00  0.40  0.00
  WS02003066WSF200        1.00   0.06  0.00  0.00  0.00  0.94  0.00  0.00  0.70  0.00
  WS02003067WS02003066    1.00   0.05  0.01  0.00  0.94  0.00  0.00  0.00  0.00  0.00
  WS02003069WS02003072    1.00   0.00  0.00  0.00  0.99  0.01  0.00  0.00  0.51  0.00
  WS02003072WS02003073    1.00   0.00  0.00  0.00  0.00  0.00  0.00  1.00  0.00  0.00
  WS02004138WS02004139    1.00   0.02  0.00  0.00  0.97  0.01  0.00  0.00  0.98  0.00
  WS02004139WS02001211    1.00   0.00  0.01  0.00  0.99  0.00  0.00  0.00  0.00  0.00
  WS02004401WS02004402    1.00   0.00  0.00  0.00  1.00  0.00  0.00  0.00  0.00  0.00
  WS02004402WS02004403    1.00   0.00  0.00  0.00  1.00  0.00  0.00  0.00  0.00  0.00
  WS02004403WS02004404    1.00   0.00  0.00  0.00  1.00  0.00  0.00  0.00  0.00  0.00
  WS02004404WS02004405    1.00   0.00  0.00  0.00  1.00  0.00  0.00  0.00  0.00  0.00
  WS02004405WS02004406    1.00   0.00  0.00  0.00  1.00  0.00  0.00  0.00  0.00  0.00
  WS02004406WS02004407    1.00   0.00  0.01  0.00  0.99  0.00  0.00  0.00  0.01  0.00
  WS02004407WS02004409    1.00   0.01  0.00  0.00  0.98  0.01  0.00  0.00  0.88  0.00
  WS02004409WS02004410    1.00   0.01  0.00  0.00  0.99  0.00  0.00  0.00  0.00  0.00
  WS02004410WS02004411    1.00   0.01  0.00  0.00  0.99  0.00  0.00  0.00  0.01  0.00
  WS02004411WS02004412    1.00   0.01  0.00  0.00  0.99  0.00  0.00  0.00  0.00  0.00
  WS02004412WS02004413    1.00   0.01  0.00  0.00  0.99  0.00  0.00  0.00  0.02  0.00
  WS02004413WS02003067    1.00   0.01  0.04  0.00  0.00  0.00  0.95  0.00  0.00  0.00
  WS02006109WS02006110    1.00   0.00  0.00  0.00  1.00  0.00  0.00  0.00  0.00  0.00
  WS02006110WS02006113    1.00   0.00  0.00  0.00  1.00  0.00  0.00  0.00  0.00  0.00
  WS02006111WS02006112    1.00   0.00  0.00  0.00  1.00  0.00  0.00  0.00  0.79  0.00
  WS02006112WS02006115    1.00   0.00  0.00  0.00  1.00  0.00  0.00  0.00  0.00  0.00
  WS02006113WS02006111    1.00   0.00  0.00  0.00  0.18  0.82  0.00  0.00  0.10  0.00
  WS02006115WS02006116    1.00   0.00  0.00  0.00  1.00  0.00  0.00  0.00  0.00  0.00
  WS02006116WS02004401    1.00   0.00  0.00  0.00  1.00  0.00  0.00  0.00  0.00  0.00
  WS02006228WS02006109    1.00   0.00  0.00  0.00  1.00  0.00  0.00  0.00  0.00  0.00
  WS02006229WS02006228    1.00   0.00  0.00  0.00  1.00  0.00  0.00  0.00  0.00  0.00
  WS02006230WS02006229    1.00   0.00  0.00  0.00  1.00  0.00  0.00  0.00  0.00  0.00
  WS02006231WS02006230    1.00   0.00  0.00  0.00  0.32  0.00  0.68  0.00  0.00  0.00
  WS02006232WS02006231    1.00   0.00  0.00  0.00  0.99  0.00  0.00  0.00  0.01  0.00
  WS02006234WS02006232    1.00   0.00  0.01  0.00  0.99  0.00  0.00  0.00  0.19  0.00
  WS02006235WS02006234    1.00   0.02  0.00  0.00  0.71  0.00  0.27  0.00  0.00  0.00
  WS02006238WS02006235    1.00   0.02  0.00  0.00  0.98  0.00  0.00  0.00  0.00  0.00
  WS02006239WS02006238    1.00   0.02  0.00  0.00  0.98  0.00  0.00  0.00  0.24  0.00
  WS02006240WS02006239    1.00   0.02  0.00  0.00  0.61  0.00  0.00  0.37  0.01  0.00
  WS02006242WS02006240    1.00   0.01  0.00  0.00  0.98  0.00  0.00  0.00  0.00  0.00
  WS02006243WS02006242    1.00   0.01  0.00  0.00  0.98  0.00  0.00  0.01  0.45  0.00
  WS02006245WS02006243    1.00   0.01  0.00  0.00  0.90  0.00  0.00  0.08  0.01  0.00
  WS02006247WS02006245    1.00   0.01  0.00  0.00  0.98  0.00  0.00  0.01  0.00  0.00
  WS02006248WS02006247    1.00   0.01  0.00  0.00  0.99  0.00  0.00  0.00  0.43  0.00
  WS02006249WS02006248    1.00   0.00  0.01  0.00  0.53  0.00  0.46  0.00  0.00  0.00
  WS02006251WS02006249    1.00   0.00  0.00  0.00  1.00  0.00  0.00  0.00  0.45  0.00
  WS02006252WS02006251    1.00   0.01  0.20  0.00  0.18  0.00  0.62  0.00  0.00  0.00
  WS02006253WS02006251    1.00   0.01  0.00  0.00  0.97  0.00  0.02  0.00  0.00  0.00
  WS02006256WS02006235    1.00   0.02  0.00  0.00  0.98  0.00  0.00  0.00  0.00  0.00
  WS02006280WS02006229    1.00   0.14  0.00  0.00  0.14  0.03  0.00  0.69  0.01  0.00
  WS02006284WS02006280    1.00   0.14  0.00  0.00  0.09  0.01  0.00  0.77  0.00  0.00
  WS02006287WS02006284    1.00   0.10  0.06  0.00  0.55  0.28  0.00  0.00  0.65  0.00
  WSF200WS02003060        1.00   0.00  0.06  0.00  0.70  0.24  0.00  0.00  0.52  0.00
  YS02001580YS02001583    1.00   0.28  0.54  0.00  0.18  0.00  0.00  0.00  0.64  0.00
  YS02001583YS02001586    1.00   0.41  0.35  0.00  0.23  0.00  0.00  0.00  0.64  0.00
  YS02001586YS02001590    1.00   0.13  0.00  0.00  0.44  0.04  0.00  0.39  0.39  0.00
  YS02001590YS02001593    1.00   0.13  0.01  0.00  0.10  0.00  0.76  0.00  0.00  0.00
  YS02001593YS02001596    1.00   0.14  0.00  0.00  0.12  0.01  0.00  0.73  0.02  0.00
  YS02001596YS02001600    1.00   0.14  0.00  0.00  0.21  0.01  0.00  0.64  0.06  0.00
  YS02001600YS02001601    1.00   0.13  0.01  0.00  0.86  0.00  0.00  0.00  0.59  0.00
  YS02001601YS02001602    1.00   0.13  0.01  0.00  0.86  0.00  0.00  0.00  0.00  0.00
  YS02001602YS02001605    1.00   0.14  0.00  0.00  0.86  0.00  0.00  0.00  0.00  0.00
  YS02001605YS02001607    1.00   0.14  0.00  0.00  0.86  0.00  0.00  0.00  0.00  0.00
  YS02001607YS02001610    1.00   0.13  0.01  0.00  0.86  0.00  0.00  0.00  0.02  0.00
  YS02001610YS02001613    1.00   0.13  0.00  0.00  0.87  0.00  0.00  0.00  0.01  0.00
  YS02001613YS02001616    1.00   0.13  0.00  0.00  0.87  0.00  0.00  0.00  0.01  0.00
  YS02001616YS02001619    1.00   0.13  0.00  0.00  0.87  0.00  0.00  0.00  0.00  0.00
  YS02001619YS02001622    1.00   0.13  0.00  0.00  0.87  0.00  0.00  0.00  0.28  0.00
  YS02001622YS02001625    1.00   0.13  0.00  0.00  0.87  0.00  0.00  0.00  0.05  0.00
  YS02001625YS02001629    1.00   0.13  0.05  0.00  0.23  0.00  0.59  0.00  0.00  0.00
  YS02001629YS02163301    1.00   0.16  0.01  0.00  0.83  0.00  0.00  0.00  0.00  0.00
  YS02001633YS02163601    1.00   0.00  0.01  0.00  0.99  0.00  0.00  0.00  0.15  0.00
  YS02001641YS02001644    1.00   0.00  0.01  0.00  0.99  0.00  0.00  0.00  0.00  0.00
  YS02001644YS02001647    1.00   0.00  0.18  0.00  0.82  0.00  0.00  0.00  0.00  0.00
  YS02001647YS02001649    1.00   0.00  0.18  0.00  0.71  0.11  0.00  0.00  0.48  0.00
  YS02001649YS02001757    1.00   0.00  0.00  0.00  0.91  0.09  0.00  0.00  0.55  0.00
  YS02001652YS02001649    1.00   0.00  0.00  0.00  0.96  0.04  0.00  0.00  0.63  0.00
  YS02001655YS02001652    1.00   0.00  0.00  0.00  0.31  0.01  0.00  0.68  0.07  0.00
  YS02001658YS02001655    1.00   0.00  0.14  0.00  0.72  0.14  0.00  0.00  0.64  0.00
  YS02001661YS02001658    1.00   0.14  0.00  0.00  0.55  0.30  0.00  0.00  0.72  0.00
  YS02001664YS02001661    1.00   0.13  0.00  0.00  0.76  0.11  0.00  0.00  0.86  0.00
  YS02001745YS02001748    1.00   0.00  0.00  0.00  0.15  0.01  0.00  0.85  0.12  0.00
  YS02001748YS02001751    1.00   0.00  0.00  0.00  0.85  0.15  0.00  0.00  0.66  0.00
  YS02001751YS02001754    1.00   0.00  0.00  0.00  0.28  0.01  0.00  0.71  0.05  0.00
  YS02001754YS02001757    1.00   0.00  0.00  0.00  1.00  0.00  0.00  0.00  0.69  0.00
  YS02001757CaochengTiaoxuchi    1.00   0.00  0.00  0.00  0.52  0.48  0.00  0.00  0.24  0.00
  YS02001759YS02001757    1.00   0.00  0.00  0.00  1.00  0.00  0.00  0.00  0.58  0.00
  YS02001762YS02001759    1.00   0.00  0.00  0.00  1.00  0.00  0.00  0.00  0.05  0.00
  YS02001765YS02001762    1.00   0.00  0.00  0.00  1.00  0.00  0.00  0.00  0.60  0.00
  YS02001767YS02001765    1.00   0.00  0.00  0.00  1.00  0.00  0.00  0.00  0.00  0.00
  YS02001770YS02001767    1.00   0.00  0.00  0.00  1.00  0.00  0.00  0.00  0.00  0.00
  YS02001774YS02001770    1.00   0.00  0.13  0.00  0.70  0.00  0.16  0.00  0.03  0.00
  YS02001779YS02001774    1.00   0.00  0.00  0.00  1.00  0.00  0.00  0.00  0.65  0.00
  YS02001783YS02001784    1.00   0.00  0.19  0.00  0.81  0.00  0.00  0.00  0.55  0.00
  YS02001784YS02001785    1.00   0.00  0.00  0.00  1.00  0.00  0.00  0.00  0.18  0.00
  YS02001786YS02001788    1.00   0.00  0.00  0.00  0.79  0.21  0.00  0.00  0.00  0.00
  YS02001788YS02001790    1.00   0.00  0.00  0.00  0.22  0.78  0.00  0.00  0.81  0.00
  YS02001790YS02001791    1.00   0.00  0.00  0.00  0.01  0.99  0.00  0.00  0.15  0.00
  YS02001791YS02001793    1.00   0.00  0.00  0.00  0.00  1.00  0.00  0.00  0.01  0.00
  YS02001793JiankangQianchi    1.00   0.00  0.00  0.00  0.26  0.74  0.00  0.00  0.35  0.00
  YS02001882YS02001884    1.00   0.15  0.01  0.00  0.83  0.00  0.00  0.00  0.00  0.00
  YS02001884YS02001887    1.00   0.06  0.05  0.00  0.89  0.00  0.00  0.00  0.00  0.00
  YS02001887YS02001890    1.00   0.00  0.00  0.00  0.97  0.00  0.03  0.00  0.00  0.00
  YS02001890YS02001895    1.00   0.00  0.17  0.00  0.83  0.00  0.00  0.00  0.00  0.00
  YS02001895YS02001898    1.00   0.17  0.00  0.00  0.81  0.00  0.02  0.00  0.00  0.00
  YS02001898YS02001901    1.00   0.17  0.00  0.00  0.83  0.00  0.00  0.00  0.01  0.00
  YS02001901YS02001904    1.00   0.17  0.00  0.00  0.83  0.00  0.00  0.00  0.00  0.00
  YS02001904YS02001907    1.00   0.00  0.17  0.00  0.83  0.00  0.00  0.00  0.00  0.00
  YS02001907YS02006553    1.00   0.00  0.02  0.00  0.98  0.00  0.00  0.00  0.00  0.00
  YS02001910YS02001907    1.00   0.00  0.00  0.00  0.97  0.00  0.00  0.03  0.12  0.00
  YS02001915YS02001910    1.00   0.00  0.00  0.00  0.96  0.04  0.00  0.00  0.17  0.00
  YS02001918YS02001915    1.00   0.00  0.00  0.00  0.98  0.02  0.00  0.00  0.77  0.00
  YS02001920YS02001918    1.00   0.00  0.00  0.00  1.00  0.00  0.00  0.00  0.01  0.00
  YS02001923YS02001920    1.00   0.00  0.00  0.00  1.00  0.00  0.00  0.00  0.93  0.00
  YS02001926YS02001923    1.00   0.00  0.07  0.00  0.05  0.00  0.87  0.00  0.00  0.00
  YS02001929YS02001926    1.00   0.00  0.13  0.00  0.87  0.00  0.00  0.00  0.83  0.00
  YS02006553YS02006556    1.00   0.01  0.00  0.00  0.99  0.00  0.00  0.00  0.03  0.00
  YS02006556YS02006558    1.00   0.00  0.00  0.00  1.00  0.00  0.00  0.00  0.00  0.00
  YS02006558YS02006561    1.00   0.19  0.00  0.00  0.05  0.76  0.00  0.00  0.19  0.00
  YS02006561YS02001783    1.00   0.19  0.00  0.00  0.08  0.73  0.00  0.00  0.69  0.00
  YS02163301YS02001633    1.00   0.00  0.16  0.00  0.84  0.00  0.00  0.00  0.00  0.00
  YS02163601YS02164001    1.00   0.00  0.08  0.00  0.92  0.00  0.00  0.00  0.00  0.00
  YS02164001YS02001641    1.00   0.01  0.07  0.00  0.92  0.00  0.00  0.00  0.06  0.00
  YSB1154YSB6556          1.00   0.12  0.00  0.00  0.88  0.00  0.00  0.00  0.02  0.00
  YSB1171HS02004479       1.00   0.04  0.00  0.00  0.95  0.00  0.00  0.01  0.10  0.00
  YSB1174YSB1171          1.00   0.05  0.04  0.00  0.91  0.00  0.00  0.00  0.00  0.00
  YSB6556YSB1171          1.00   0.04  0.08  0.00  0.88  0.00  0.00  0.00  0.00  0.00
  
  
  *************************
  Conduit Surcharge Summary
  *************************
  
  ----------------------------------------------------------------------------
                                                           Hours        Hours 
                         --------- Hours Full --------   Above Full   Capacity
  Conduit                Both Ends  Upstream  Dnstream   Normal Flow   Limited
  ----------------------------------------------------------------------------
  HS02004478WS02006287        0.40      0.40      0.57      0.01         0.01
  HS02004479HS02004480        0.57      0.57      0.59      0.01         0.01
  HS02004480HS02004478        0.50      0.56      0.50      1.58         0.50
  HS02004770HS02004777        0.47      0.47      0.48      0.10         0.06
  HS02004777HS02004785        0.43      0.43      0.48      0.01         0.01
  HS02004785HS02004788        0.42      0.43      0.42      1.26         0.39
  HS02004788HS02004792        0.42      0.42      0.53      0.01         0.01
  HS02004792HS02004799        0.53      0.53      0.65      0.01         0.01
  HS02004799HS02004480        0.56      0.56      0.65      0.73         0.01
  HS02004802HS02004478        0.51      0.51      0.58      0.09         0.01
  HS02004807HS02004802        0.56      0.56      0.57      0.22         0.22
  HS02004817HS02004807        0.56      0.56      1.09      0.01         0.01
  HS02004817HS02004824        0.42      0.42      1.09      0.01         0.01
  HS02004824HS02004830        0.39      0.39      0.42      0.01         0.01
  HS02004830HS02004837        0.36      0.36      0.39      0.01         0.01
  HS02004837HS02004842        0.36      0.36      0.49      0.01         0.01
  HS02004842HS02004848        0.31      0.31      0.49      0.01         0.01
  HS02004848HS02004852        0.31      0.31      0.33      0.03         0.01
  HS02004852HS02004856        0.33      0.33      0.35      0.02         0.01
  HS02004856HS02004862        0.31      0.31      0.35      0.01         0.01
  HS02004862HS02004870        0.35      0.35      0.37      0.16         0.15
  HS02004870HS02004876        0.37      0.37      0.42      0.01         0.01
  HS02004876HS02004881        0.40      0.42      0.40      1.31         0.40
  HS02004881HS02006253        0.40      0.40      1.37      0.01         0.01
  HS02004901HS02004770        0.47      0.47      0.48      0.01         0.01
  WS02003072WS02003073        0.01      0.01      0.01      3.41         0.01
  WS02004401WS02004402        1.47      1.47      1.55      1.33         1.32
  WS02004402WS02004403        1.55      1.55      1.56      1.45         1.45
  WS02004403WS02004404        1.56      1.56      1.66      0.01         0.02
  WS02004404WS02004405        1.64      1.66      1.64      4.49         1.64
  WS02004405WS02004406        1.62      1.64      1.62      1.81         1.62
  WS02004406WS02004407        0.01      0.01      1.62      0.01         0.01
  WS02004407WS02004409        0.01      0.01      0.91      0.01         0.01
  WS02004409WS02004410        0.85      0.91      0.85      1.38         0.85
  WS02004410WS02004411        0.75      0.85      0.75      1.42         0.75
  WS02004411WS02004412        0.67      0.75      0.67      1.44         0.67
  WS02004412WS02004413        0.67      0.67      1.24      0.01         0.01
  WS02004413WS02003067        0.01      0.01      1.24      0.01         0.01
  WS02006109WS02006110        1.79      1.80      1.94      1.80         0.01
  WS02006110WS02006113        1.21      1.21      1.94      0.26         0.01
  WS02006111WS02006112        1.17      1.18      2.77      0.01         0.01
  WS02006112WS02006115        1.39      1.39      1.84      0.01         0.01
  WS02006113WS02006111        1.20      1.21      1.20      1.32         1.20
  WS02006115WS02006116        1.40      1.40      1.40      1.38         1.37
  WS02006116WS02004401        1.45      1.45      1.47      1.43         1.42
  WS02006228WS02006109        1.92      1.94      1.92      3.49         1.92
  WS02006229WS02006228        1.92      1.92      1.92      2.50         1.92
  WS02006230WS02006229        2.10      2.36      2.10      4.49         1.21
  WS02006231WS02006230        1.68      1.68      1.73      4.11         0.88
  WS02006232WS02006231        1.72      1.72      1.85      0.01         0.12
  WS02006234WS02006232        1.80      1.80      1.85      0.01         0.01
  WS02006235WS02006234        1.79      1.79      1.81      3.86         0.86
  WS02006238WS02006235        1.81      1.81      1.82      0.01         0.29
  WS02006239WS02006238        1.80      1.80      1.81      0.82         0.01
  WS02006240WS02006239        1.77      1.77      1.79      0.81         0.01
  WS02006242WS02006240        1.76      1.76      1.81      1.34         0.73
  WS02006243WS02006242        1.70      1.70      1.78      0.01         0.01
  WS02006245WS02006243        1.66      1.66      1.69      0.13         0.01
  WS02006247WS02006245        1.65      1.67      1.65      3.53         0.55
  WS02006248WS02006247        1.61      1.61      1.66      0.01         0.01
  WS02006249WS02006248        1.59      1.59      1.61      2.45         0.01
  WS02006251WS02006249        1.59      1.59      1.61      1.23         1.11
  WS02006252WS02006251        1.52      1.53      1.57      0.18         0.02
  WS02006253WS02006251        1.58      1.58      1.61      0.69         0.01
  WS02006256WS02006235        4.09      4.09      5.55      0.52         0.01
  WS02006280WS02006229        0.68      0.68      0.78      0.01         0.01
  WS02006284WS02006280        0.59      0.59      0.67      0.01         0.01
  WS02006287WS02006284        0.50      0.50      0.60      0.25         0.25
  YS02001580YS02001583        0.51      0.51      0.56      0.01         0.01
  YS02001583YS02001586        0.52      0.52      0.63      0.01         0.01
  YS02001586YS02001590        0.63      0.63      0.70      0.01         0.01
  YS02001590YS02001593        0.70      0.70      0.72      0.73         0.01
  YS02001593YS02001596        0.71      0.71      0.82      0.01         0.01
  YS02001596YS02001600        0.88      0.88      0.99      0.01         0.01
  YS02001600YS02001601        1.06      1.06      1.49      0.01         0.01
  YS02001601YS02001602        1.39      1.39      1.52      0.96         0.01
  YS02001602YS02001605        1.35      1.35      1.39      2.26         0.01
  YS02001605YS02001607        1.31      1.35      1.34      1.22         1.09
  YS02001607YS02001610        0.69      0.69      0.73      0.01         0.01
  YS02001610YS02001613        0.69      0.69      0.73      0.01         0.01
  YS02001613YS02001616        0.63      0.63      0.69      0.01         0.01
  YS02001616YS02001619        0.62      0.62      0.63      0.01         0.02
  YS02001619YS02001622        0.62      0.62      0.62      0.70         0.60
  YS02001622YS02001625        0.62      0.62      0.88      0.01         0.01
  YS02001625YS02001629        0.57      0.57      0.88      0.01         0.01
  YS02001629YS02163301        0.93      0.93      1.03      0.24         0.23
  YS02001633YS02163601        1.14      1.14      1.20      0.39         0.38
  YS02001641YS02001644        1.10      1.11      1.10      1.39         0.94
  YS02001644YS02001647        0.49      0.49      1.10      0.05         0.01
  YS02001647YS02001649        0.49      0.49      1.04      0.01         0.01
  YS02001649YS02001757        1.03      1.04      1.12      0.33         0.26
  YS02001652YS02001649        0.39      0.39      1.04      0.01         0.01
  YS02001655YS02001652        0.24      0.24      0.36      0.01         0.01
  YS02001658YS02001655        0.14      0.14      0.24      0.01         0.01
  YS02001661YS02001658        0.01      0.01      0.14      0.01         0.01
  YS02001664YS02001661        0.01      0.01      0.04      0.01         0.01
  YS02001745YS02001748        0.01      0.01      0.07      0.01         0.01
  YS02001748YS02001751        0.11      0.11      0.16      0.01         0.01
  YS02001751YS02001754        0.16      0.16      0.26      0.01         0.01
  YS02001754YS02001757        0.28      0.28      1.12      0.01         0.01
  YS02001757CaochengTiaoxuchi        0.96      1.12      2.06      0.37         0.15
  YS02001759YS02001757        1.03      1.03      1.12      0.03         0.05
  YS02001762YS02001759        1.00      1.00      1.03      0.01         0.03
  YS02001765YS02001762        0.85      0.85      1.00      0.01         0.01
  YS02001767YS02001765        0.47      0.47      0.85      0.01         0.05
  YS02001770YS02001767        0.42      0.42      0.47      0.47         0.31
  YS02001774YS02001770        0.37      0.37      0.99      0.01         0.01
  YS02001779YS02001774        0.26      0.26      0.99      0.01         0.01
  YS02001783YS02001784        0.44      0.46      0.44      0.61         0.44
  YS02001784YS02001785        0.34      0.44      0.34      0.83         0.34
  YS02001786YS02001788        0.01      0.34      0.01      0.72         0.01
  YS02001790YS02001791        0.01      0.01      0.01      0.43         0.01
  YS02001793JiankangQianchi        0.01      0.01      0.11      0.01         0.01
  YS02001882YS02001884        0.41      0.41      0.42      0.01         0.01
  YS02001884YS02001887        0.45      0.45      0.46      0.01         0.01
  YS02001887YS02001890        0.47      0.47      0.48      0.09         0.01
  YS02001890YS02001895        0.40      0.40      0.50      0.01         0.01
  YS02001895YS02001898        0.39      0.39      0.40      0.01         0.01
  YS02001898YS02001901        0.40      0.40      0.44      0.01         0.01
  YS02001901YS02001904        0.43      0.43      0.44      0.01         0.01
  YS02001904YS02001907        0.43      0.43      0.70      0.01         0.01
  YS02001907YS02006553        0.84      0.84      0.91      0.01         0.01
  YS02001910YS02001907        0.49      0.49      0.69      0.01         0.01
  YS02001915YS02001910        0.41      0.41      0.49      0.01         0.01
  YS02001918YS02001915        0.33      0.33      0.41      0.01         0.01
  YS02001920YS02001918        0.33      0.33      0.34      0.01         0.01
  YS02001923YS02001920        0.29      0.29      0.34      0.01         0.01
  YS02001926YS02001923        0.08      0.08      0.10      0.01         0.01
  YS02001929YS02001926        0.01      0.01      0.10      0.01         0.01
  YS02006553YS02006556        0.59      0.59      0.71      0.01         0.01
  YS02006556YS02006558        0.64      0.64      0.72      0.01         0.01
  YS02006558YS02006561        0.36      0.57      0.36      0.79         0.36
  YS02006561YS02001783        0.30      0.30      0.46      0.01         0.01
  YS02163301YS02001633        1.03      1.03      1.16      0.01         0.01
  YS02163601YS02164001        1.11      1.11      1.20      0.15         0.01
  YS02164001YS02001641        1.10      1.11      1.11      0.63         0.57
  YSB1154YSB6556              0.63      0.63      0.76      0.01         0.01
  YSB1171HS02004479           0.52      0.52      0.76      0.01         0.01
  YSB1174YSB1171              0.69      0.69      1.00      0.01         0.01
  YSB6556YSB1171              0.63      0.63      1.15      0.01         0.01
  
  
  ***************
  Pumping Summary
  ***************
  
  ---------------------------------------------------------------------------------------------------------
                                                  Min       Avg       Max     Total     Power    % Time Off
                        Percent   Number of      Flow      Flow      Flow    Volume     Usage    Pump Curve
  Pump                 Utilized   Start-Ups       LPS       LPS       LPS  10^6 ltr     Kw-hr    Low   High
  ---------------------------------------------------------------------------------------------------------
  CC-R1                   48.96          14      0.00    455.71    683.00     3.585     62.19    0.0   82.1
  CC-R2                   66.67          12      0.00    465.79    683.00     6.167    105.61    0.0   82.8
  CC-S1                   30.21          14      0.00    196.27    200.00     1.684     10.27    0.0   20.8
  CC-S2                   23.96          11      0.00    180.11    200.00     1.108      7.28    0.0   41.9
  JK-R1                   56.25          13      0.00    142.68   1000.00     2.441      6.55    0.0    0.0
  JK-R2                   20.83          10      0.00    214.74   1000.00     1.855      5.26    0.0    0.0
  JK-S                    47.92          13      0.00     69.07    300.00     0.918     20.10    0.0    0.0
  XR-1                    97.91           1      0.00     95.00     95.00     2.679      9.63    0.0    0.0
  XR-2                    93.95           1      0.00     95.00     95.00     2.570      8.79    0.0    0.0
  XR-3                     0.00           0      0.00      0.00      0.00     0.000      0.00    0.0    0.0
  XR-4                     0.00           0      0.00      0.00      0.00     0.000      0.00    0.0    0.0
  

  Analysis begun on:  Thu Jun 15 19:52:45 2023
  Analysis ended on:  Thu Jun 15 19:52:56 2023
  Total elapsed time: 00:00:11