
  OWA STORM WATER MANAGEMENT MODEL - VERSION v5.1.14 (OWA 2022-07-31)
  --------------------------------------------------------------

  WARNING 04: minimum elevation drop used for Conduit WS02004404WS02004405
  WARNING 03: negative offset ignored for Link YS02001904YS02001907
  
  *********************************************************
  NOTE: The summary statistics displayed in this report are
  based on results found at every computational time step,  
  not just on results from each reporting time step.
  *********************************************************
  
  ****************
  Analysis Options
  ****************
  Flow Units ............... LPS
  Process Models:
    Rainfall/Runoff ........ YES
    RDII ................... NO
    Snowmelt ............... NO
    Groundwater ............ NO
    Flow Routing ........... YES
    Ponding Allowed ........ NO
    Water Quality .......... NO
  Infiltration Method ...... HORTON
  Flow Routing Method ...... DYNWAVE
  Surcharge Method ......... EXTRAN
  Starting Date ............ 08/28/2015 08:00:00
  Ending Date .............. 08/28/2015 16:00:00
  Antecedent Dry Days ...... 8.0
  Report Time Step ......... 00:01:00
  Wet Time Step ............ 00:01:00
  Dry Time Step ............ 00:01:00
  Routing Time Step ........ 30.00 sec
  Variable Time Step ....... YES
  Maximum Trials ........... 8
  Number of Threads ........ 4
  Head Tolerance ........... 0.001500 m
  
  
  **************************        Volume         Depth
  Runoff Quantity Continuity     hectare-m            mm
  **************************     ---------       -------
  Total Precipitation ......         4.623       139.361
  Evaporation Loss .........         0.000         0.000
  Infiltration Loss ........         0.106         3.201
  Surface Runoff ...........         4.484       135.197
  Final Storage ............         0.033         0.997
  Continuity Error (%) .....        -0.024
  
  
  **************************        Volume        Volume
  Flow Routing Continuity        hectare-m      10^6 ltr
  **************************     ---------     ---------
  Dry Weather Inflow .......         0.000         0.000
  Wet Weather Inflow .......         4.485        44.847
  Groundwater Inflow .......         0.000         0.000
  RDII Inflow ..............         0.000         0.000
  External Inflow ..........         0.083         0.834
  External Outflow .........         2.079        20.790
  Flooding Loss ............         2.547        25.471
  Evaporation Loss .........         0.000         0.000
  Exfiltration Loss ........         0.000         0.000
  Initial Stored Volume ....         0.243         2.431
  Final Stored Volume ......         0.216         2.161
  Continuity Error (%) .....        -0.644
  
  
  *************************
  Highest Continuity Errors
  *************************
  Node YS02001583 (-5.79%)
  Node YS02001884 (3.90%)
  Node WS02006110 (-1.11%)
  
  
  ***************************
  Time-Step Critical Elements
  ***************************
  Link WS02004404WS02004405 (32.81%)
  Link YS02001791YS02001793 (19.04%)
  Link WS02006252WS02006251 (16.32%)
  Link WS02006235WS02006234 (7.02%)
  Link WS02003066WSF200 (6.87%)
  
  
  ********************************
  Highest Flow Instability Indexes
  ********************************
  Link WS02006238WS02006235 (38)
  Link WS02006113WS02006111 (35)
  Link WS02006252WS02006251 (29)
  Link WS02006111WS02006112 (29)
  Link WS02006239WS02006238 (28)
  
  
  *************************
  Routing Time Step Summary
  *************************
  Minimum Time Step           :     0.00 sec
  Average Time Step           :     2.96 sec
  Maximum Time Step           :    30.00 sec
  Percent in Steady State     :     0.00
  Average Iterations per Step :     3.62
  Percent Not Converging      :    14.06
  
  
  ***************************
  Subcatchment Runoff Summary
  ***************************
  
  ------------------------------------------------------------------------------------------------------------------------------
                            Total      Total      Total      Total     Imperv       Perv      Total       Total     Peak  Runoff
                           Precip      Runon       Evap      Infil     Runoff     Runoff     Runoff      Runoff   Runoff   Coeff
  Subcatchment                 mm         mm         mm         mm         mm         mm         mm    10^6 ltr      LPS
  ------------------------------------------------------------------------------------------------------------------------------
  sub60                    139.36       0.00       0.00       1.91     121.46      14.82     136.27        1.79  1210.07   0.978
  sub61                    139.36       0.00       0.00       2.78     114.56      20.92     135.48        2.49  1682.63   0.972
  sub62                    139.36       0.00       0.00       1.27     126.94       9.88     136.82        3.75  2393.15   0.982
  sub63                    139.36       0.00       0.00       5.13      97.99      35.30     133.29        3.03  1934.11   0.956
  sub64                    139.36       0.00       0.00       2.59     117.27      18.32     135.58        3.26  1974.80   0.973
  sub65                    139.36       0.00       0.00       2.24     120.01      15.88     135.88        3.74  2217.99   0.975
  sub66                    139.36       0.00       0.00       6.35      97.88      34.07     131.95        6.15  3035.17   0.947
  sub67                    139.36       0.00       0.00       1.22     126.99       9.93     136.92        2.55  1796.53   0.983
  sub68                    139.36       0.00       0.00       2.30     118.68      17.22     135.90        3.74  2451.12   0.975
  sub69                    139.36       0.00       0.00       2.08     118.36      18.82     137.18        5.08  2951.25   0.984
  sub70                    139.36       0.00       0.00       6.95      91.82      40.43     132.25        3.82  1709.70   0.949
  sub71                    139.36       0.00       0.00       1.31     126.90       9.84     136.74        3.58  2131.43   0.981
  sub72                    139.36       0.00       0.00       1.17     128.21       8.59     136.81        1.88  1050.20   0.982
  
  
  ******************
  Node Depth Summary
  ******************
  
  ---------------------------------------------------------------------------------
                                 Average  Maximum  Maximum  Time of Max    Reported
                                   Depth    Depth      HGL   Occurrence   Max Depth
  Node                 Type       Meters   Meters   Meters  days hr:min      Meters
  ---------------------------------------------------------------------------------
  WS02003060           JUNCTION     0.23     0.38     5.31     0  02:33        0.38
  WS02003066           JUNCTION     0.19     0.30     5.85     0  02:32        0.30
  WS02003067           JUNCTION     0.50     0.70     6.02     0  02:32        0.70
  WS02003069           JUNCTION     0.25     0.43     5.01     0  02:33        0.43
  WS02003072           JUNCTION     0.31     0.50     4.87     0  02:19        0.50
  WS02003073           JUNCTION     0.18     0.30     4.36     0  02:19        0.30
  WS02004401           JUNCTION     0.60     0.85     6.85     0  02:02        0.85
  WS02004402           JUNCTION     0.63     0.88     6.84     0  02:03        0.88
  WS02004403           JUNCTION     0.65     0.89     6.82     0  02:03        0.89
  WS02004404           JUNCTION     0.73     0.96     6.81     0  02:03        0.96
  WS02004405           JUNCTION     0.73     0.96     6.81     0  02:03        0.95
  WS02004406           JUNCTION     0.74     0.96     6.79     0  02:03        0.96
  WS02004407           JUNCTION     0.17     0.30     6.61     0  02:03        0.30
  WS02004409           JUNCTION     0.39     0.67     6.44     0  02:04        0.67
  WS02004410           JUNCTION     0.41     0.68     6.40     0  02:04        0.68
  WS02004411           JUNCTION     0.44     0.69     6.37     0  02:31        0.69
  WS02004412           JUNCTION     0.46     0.70     6.34     0  02:32        0.70
  WS02004413           JUNCTION     0.62     0.86     6.33     0  02:32        0.86
  WS02006109           JUNCTION     0.66     1.24     7.85     0  00:00        1.06
  WS02006110           JUNCTION     0.66     1.45     8.04     0  00:00        1.00
  WS02006111           JUNCTION     0.17     1.67     8.37     0  00:00        0.56
  WS02006112           JUNCTION     0.76     2.68     8.56     0  00:00        1.29
  WS02006113           JUNCTION     0.27     1.50     8.40     0  00:00        0.45
  WS02006115           JUNCTION     0.48     1.69     7.83     0  00:00        0.86
  WS02006116           JUNCTION     0.57     1.11     7.15     0  00:00        0.83
  WS02006228           JUNCTION     0.66     1.64     8.29     0  00:00        1.10
  WS02006229           JUNCTION     0.64     1.31     8.00     0  00:00        1.08
  WS02006230           JUNCTION     0.65     1.33     8.07     0  02:44        1.13
  WS02006231           JUNCTION     0.44     1.25     8.37     0  03:19        0.88
  WS02006232           JUNCTION     0.58     1.66     8.70     0  03:22        1.66
  WS02006234           JUNCTION     0.53     1.96     9.12     0  03:22        1.96
  WS02006235           JUNCTION     0.58     1.87     9.03     0  03:22        1.87
  WS02006238           JUNCTION     0.61     1.87     9.01     0  03:22        1.87
  WS02006239           JUNCTION     0.58     1.68     8.89     0  03:22        1.65
  WS02006240           JUNCTION     0.56     1.61     8.90     0  03:22        1.49
  WS02006242           JUNCTION     0.62     1.55     8.82     0  03:18        1.47
  WS02006243           JUNCTION     0.55     1.48     8.90     0  03:23        1.48
  WS02006245           JUNCTION     0.55     1.51     9.00     0  03:23        1.51
  WS02006247           JUNCTION     0.57     1.43     8.93     0  03:23        1.43
  WS02006248           JUNCTION     0.54     1.10     8.69     0  01:34        1.10
  WS02006249           JUNCTION     0.56     1.09     8.69     0  01:34        1.09
  WS02006251           JUNCTION     0.57     1.37     9.04     0  01:34        1.18
  WS02006252           JUNCTION     0.37     1.50     9.74     0  01:31        0.74
  WS02006256           JUNCTION     1.24     2.35     9.28     0  01:26        2.35
  WSF200               JUNCTION     0.16     0.29     5.52     0  02:32        0.29
  YS02001580           JUNCTION     0.22     1.05     9.59     0  01:34        0.78
  YS02001583           JUNCTION     0.25     1.14     9.64     0  01:34        0.82
  YS02001586           JUNCTION     0.39     1.13     9.30     0  01:34        1.13
  YS02001590           JUNCTION     0.53     1.40     9.26     0  01:34        1.37
  YS02001593           JUNCTION     0.45     1.34     9.20     0  01:34        1.29
  YS02001596           JUNCTION     0.61     1.71     9.13     0  01:31        1.71
  YS02001600           JUNCTION     0.74     1.87     9.00     0  01:31        1.87
  YS02001601           JUNCTION     0.94     2.06     8.90     0  01:31        2.06
  YS02001602           JUNCTION     0.83     1.87     8.77     0  01:33        1.87
  YS02001605           JUNCTION     0.77     1.78     8.68     0  02:06        1.78
  YS02001607           JUNCTION     0.72     1.65     8.50     0  02:06        1.65
  YS02001610           JUNCTION     0.77     1.68     8.48     0  01:37        1.68
  YS02001613           JUNCTION     0.73     1.67     8.51     0  01:50        1.67
  YS02001616           JUNCTION     0.66     1.61     8.52     0  01:43        1.61
  YS02001619           JUNCTION     0.64     1.61     8.54     0  01:43        1.61
  YS02001622           JUNCTION     0.62     1.59     8.50     0  01:52        1.59
  YS02001625           JUNCTION     0.87     1.78     8.38     0  01:37        1.78
  YS02001629           JUNCTION     0.79     1.85     8.40     0  01:38        1.85
  YS02001633           JUNCTION     0.87     2.08     8.53     0  01:48        2.08
  YS02001641           JUNCTION     0.84     1.97     8.40     0  01:52        1.96
  YS02001644           JUNCTION     0.83     1.92     8.35     0  01:39        1.92
  YS02001647           JUNCTION     0.62     1.80     8.41     0  01:43        1.79
  YS02001649           JUNCTION     0.71     2.05     8.44     0  01:43        2.05
  YS02001652           JUNCTION     0.58     2.05     8.64     0  01:50        2.05
  YS02001655           JUNCTION     0.48     2.00     8.85     0  01:50        1.99
  YS02001658           JUNCTION     0.38     1.91     9.05     0  01:50        1.91
  YS02001661           JUNCTION     0.34     1.86     9.26     0  01:50        1.86
  YS02001664           JUNCTION     0.15     1.54     9.47     0  01:50        1.54
  YS02001745           JUNCTION     0.21     1.26     8.78     0  01:49        1.26
  YS02001748           JUNCTION     0.36     1.62     8.69     0  01:49        1.61
  YS02001751           JUNCTION     0.43     1.73     8.61     0  01:48        1.72
  YS02001754           JUNCTION     0.54     1.92     8.53     0  01:49        1.92
  YS02001757           JUNCTION     0.75     2.18     8.44     0  01:48        2.17
  YS02001759           JUNCTION     0.69     2.18     8.54     0  01:48        2.17
  YS02001762           JUNCTION     0.67     2.12     8.52     0  01:48        2.12
  YS02001765           JUNCTION     0.64     2.06     8.51     0  01:48        2.06
  YS02001767           JUNCTION     0.63     2.00     8.49     0  01:48        1.99
  YS02001770           JUNCTION     0.65     1.95     8.44     0  01:43        1.95
  YS02001774           JUNCTION     0.71     2.00     8.42     0  01:52        2.00
  YS02001779           JUNCTION     0.51     1.68     8.37     0  01:37        1.68
  YS02001783           JUNCTION     0.40     1.33     7.47     0  01:49        1.33
  YS02001784           JUNCTION     0.39     1.19     7.25     0  01:52        1.17
  YS02001786           JUNCTION     0.32     0.91     6.94     0  01:50        0.91
  YS02001788           JUNCTION     0.23     0.64     6.62     0  01:49        0.64
  YS02001790           JUNCTION     0.27     0.72     6.37     0  01:41        0.72
  YS02001791           JUNCTION     0.17     0.44     5.91     0  01:45        0.44
  YS02001793           JUNCTION     0.08     0.21     5.05     0  01:46        0.21
  YS02001882           JUNCTION     0.51     1.79     8.51     0  01:49        1.79
  YS02001884           JUNCTION     0.60     1.89     8.51     0  01:49        1.88
  YS02001887           JUNCTION     0.68     1.97     8.51     0  01:48        1.96
  YS02001890           JUNCTION     0.70     1.81     8.32     0  01:38        1.81
  YS02001895           JUNCTION     0.47     1.58     8.33     0  02:06        1.57
  YS02001898           JUNCTION     0.48     1.59     8.32     0  02:06        1.56
  YS02001901           JUNCTION     0.59     1.69     8.30     0  02:06        1.67
  YS02001904           JUNCTION     0.57     1.74     8.37     0  02:06        1.74
  YS02001907           JUNCTION     0.88     1.96     8.25     0  01:38        1.96
  YS02001910           JUNCTION     0.70     2.01     8.52     0  01:49        2.01
  YS02001915           JUNCTION     0.53     2.00     8.72     0  01:46        2.00
  YS02001918           JUNCTION     0.33     1.81     8.88     0  01:39        1.79
  YS02001920           JUNCTION     0.41     2.08     9.09     0  01:39        1.91
  YS02001923           JUNCTION     0.28     1.98     9.24     0  01:39        1.74
  YS02001926           JUNCTION     0.30     1.90     9.35     0  01:39        1.63
  YS02001929           JUNCTION     0.20     1.78     9.47     0  01:39        1.48
  YS02006553           JUNCTION     0.88     2.03     8.31     0  01:48        2.02
  YS02006556           JUNCTION     0.85     2.09     8.40     0  01:50        2.09
  YS02006558           JUNCTION     0.89     2.19     8.46     0  01:50        2.19
  YS02006561           JUNCTION     0.26     1.01     7.67     0  01:49        1.00
  YS02163301           JUNCTION     0.81     1.97     8.48     0  01:52        1.97
  YS02163601           JUNCTION     0.90     2.08     8.48     0  01:50        2.08
  YS02164001           JUNCTION     0.83     1.98     8.43     0  01:50        1.97
  CC-1                 OUTFALL      0.00     0.00     0.00     0  00:00        0.00
  CC-2                 OUTFALL      0.00     0.00     0.00     0  00:00        0.00
  JK-1                 OUTFALL      0.00     0.00     0.00     0  00:00        0.00
  JK-2                 OUTFALL      0.00     0.00     0.00     0  00:00        0.00
  WSC                  OUTFALL      0.18     0.30     0.97     0  02:20        0.30
  CC-storage           STORAGE      1.16     2.10     7.60     0  02:31        2.10
  JK-storage           STORAGE      2.51     4.21     5.01     0  01:34        4.17
  
  
  *******************
  Node Inflow Summary
  *******************
  
  -------------------------------------------------------------------------------------------------
                                  Maximum  Maximum                  Lateral       Total        Flow
                                  Lateral    Total  Time of Max      Inflow      Inflow     Balance
                                   Inflow   Inflow   Occurrence      Volume      Volume       Error
  Node                 Type           LPS      LPS  days hr:min    10^6 ltr    10^6 ltr     Percent
  -------------------------------------------------------------------------------------------------
  WS02003060           JUNCTION     16.53   552.05     0  02:33       0.476        5.49       0.037
  WS02003066           JUNCTION      0.00   535.42     0  02:32           0        5.02       0.024
  WS02003067           JUNCTION      0.00   535.41     0  02:32           0        5.02       0.078
  WS02003069           JUNCTION      0.32   552.25     0  02:33     0.00922         5.5       0.061
  WS02003072           JUNCTION      0.00   552.14     0  02:18           0        5.49       0.111
  WS02003073           JUNCTION      1.82   553.95     0  02:19      0.0524        5.54       0.086
  WS02004401           JUNCTION      0.00  1786.04     0  00:00           0        5.12       0.205
  WS02004402           JUNCTION      0.00  1248.69     0  00:01           0        5.11       0.206
  WS02004403           JUNCTION      0.00   929.44     0  00:01           0         5.1       0.205
  WS02004404           JUNCTION      0.00   877.02     0  00:01           0        5.09       0.165
  WS02004405           JUNCTION      0.00   827.31     0  00:01           0        5.08       0.246
  WS02004406           JUNCTION      0.00   768.45     0  00:02           0        5.07       0.414
  WS02004407           JUNCTION      0.00   536.45     0  02:03           0        5.05       0.015
  WS02004409           JUNCTION      0.00   536.11     0  02:03           0        5.05       0.043
  WS02004410           JUNCTION      0.00   535.77     0  02:04           0        5.05       0.077
  WS02004411           JUNCTION      0.00   535.65     0  02:31           0        5.04       0.100
  WS02004412           JUNCTION      0.00   535.56     0  02:31           0        5.04       0.134
  WS02004413           JUNCTION      0.00   535.54     0  02:32           0        5.03       0.254
  WS02006109           JUNCTION      0.00  1446.81     0  00:00           0        5.02      -0.105
  WS02006110           JUNCTION      0.00   554.37     0  02:44           0           5      -1.098
  WS02006111           JUNCTION      0.00  1180.41     0  00:00           0        5.05      -0.848
  WS02006112           JUNCTION      0.00  2307.30     0  00:00           0        5.09      -0.002
  WS02006113           JUNCTION      0.00   564.43     0  02:44           0        5.01      -0.760
  WS02006115           JUNCTION      0.00   953.54     0  00:00           0        5.06      -0.712
  WS02006116           JUNCTION      0.00  1264.47     0  00:00           0         5.1      -0.464
  WS02006228           JUNCTION      0.00   869.18     0  00:00           0           5      -0.015
  WS02006229           JUNCTION      0.00   552.96     0  02:44           0        4.99      -0.062
  WS02006230           JUNCTION     10.28   706.67     0  00:00       0.296        4.98       0.031
  WS02006231           JUNCTION      0.00   572.08     0  03:23           0        4.67      -0.046
  WS02006232           JUNCTION      0.00   570.34     0  03:23           0        4.67       0.100
  WS02006234           JUNCTION      0.00   565.57     0  03:23           0        4.66      -0.056
  WS02006235           JUNCTION      0.00   559.18     0  02:44           0        4.66       0.001
  WS02006238           JUNCTION      0.00   426.98     0  03:17           0         3.3      -0.042
  WS02006239           JUNCTION      0.00   422.24     0  03:06           0         3.3      -0.073
  WS02006240           JUNCTION      0.00   422.35     0  03:23           0         3.3      -0.008
  WS02006242           JUNCTION      0.00   422.87     0  03:21           0         3.3       0.043
  WS02006243           JUNCTION      0.00   424.41     0  03:21           0         3.3      -0.042
  WS02006245           JUNCTION      0.00   423.56     0  03:21           0         3.3       0.099
  WS02006247           JUNCTION      0.00   422.22     0  03:21           0         3.3       0.007
  WS02006248           JUNCTION      0.00   422.26     0  03:23           0        3.31      -0.021
  WS02006249           JUNCTION      0.00   425.31     0  01:34           0        3.74       0.032
  WS02006251           JUNCTION      0.00   407.29     0  01:34           0        3.74      -0.001
  WS02006252           JUNCTION      0.00   400.00     0  01:31           0        3.74      -0.078
  WS02006256           JUNCTION      0.00   300.00     0  01:26           0        2.05      -0.201
  WSF200               JUNCTION      0.00   535.44     0  02:32           0        5.01       0.005
  YS02001580           JUNCTION      0.00    80.59     0  01:34           0      0.0041       2.244
  YS02001583           JUNCTION      0.00   138.91     0  01:34           0      0.0153      -5.475
  YS02001586           JUNCTION   1709.70  1709.70     0  01:52        3.82        3.83       0.031
  YS02001590           JUNCTION      0.00   318.59     0  01:52           0        1.98      -0.023
  YS02001593           JUNCTION      0.00   318.42     0  01:52           0        1.98       0.002
  YS02001596           JUNCTION      0.00   318.32     0  01:50           0        1.98      -0.009
  YS02001600           JUNCTION      0.00   318.20     0  01:52           0        1.98       0.003
  YS02001601           JUNCTION   2951.25  3268.70     0  01:51        5.08        7.05       0.012
  YS02001602           JUNCTION      0.00   513.74     0  01:33           0        2.98       0.015
  YS02001605           JUNCTION      0.00   513.77     0  01:33           0        2.71       0.021
  YS02001607           JUNCTION      0.00   514.09     0  01:33           0        2.71       0.071
  YS02001610           JUNCTION      0.00   954.99     0  01:55           0        3.74       0.060
  YS02001613           JUNCTION      0.00   618.38     0  01:55           0        2.71       0.058
  YS02001616           JUNCTION      0.00   618.81     0  01:55           0        2.71       0.012
  YS02001619           JUNCTION   3035.17  3035.17     0  01:52        6.15        7.83      -0.004
  YS02001622           JUNCTION      0.00  1053.92     0  01:50           0        5.94      -0.002
  YS02001625           JUNCTION      0.00  1505.37     0  01:55           0         6.7       0.163
  YS02001629           JUNCTION      0.00  1138.79     0  01:53           0        4.27      -0.019
  YS02001633           JUNCTION   2217.99  2217.99     0  01:51        3.74         6.8       0.044
  YS02001641           JUNCTION      0.00  1309.75     0  01:36           0        5.56       0.045
  YS02001644           JUNCTION   1974.80  3717.85     0  01:50        3.26        9.28       0.031
  YS02001647           JUNCTION      0.00  1677.60     0  01:37           0        6.37       0.003
  YS02001649           JUNCTION      0.00  1940.93     0  01:50           0        8.93      -0.002
  YS02001652           JUNCTION      0.00  1939.91     0  01:50           0        3.03      -0.049
  YS02001655           JUNCTION      0.00  1938.71     0  01:50           0        3.03       0.017
  YS02001658           JUNCTION      0.00  1936.65     0  01:50           0        3.03      -0.030
  YS02001661           JUNCTION      0.00  1934.96     0  01:50           0        3.03      -0.044
  YS02001664           JUNCTION   1934.11  1934.11     0  01:50        3.03        3.03       0.005
  YS02001745           JUNCTION   1210.07  1210.07     0  01:50        1.79        1.79       0.079
  YS02001748           JUNCTION      0.00  1209.88     0  01:49           0        1.79      -0.151
  YS02001751           JUNCTION      0.00  1209.97     0  01:50           0         1.8       0.061
  YS02001754           JUNCTION      0.00  1210.28     0  01:50           0         1.8      -0.101
  YS02001757           JUNCTION      0.00  3129.17     0  01:47           0        14.5       0.005
  YS02001759           JUNCTION   1682.63  1682.63     0  01:50        2.49        4.43      -0.012
  YS02001762           JUNCTION      0.00   697.49     0  01:41           0        2.07      -0.021
  YS02001765           JUNCTION      0.00   696.31     0  01:41           0        2.07       0.004
  YS02001767           JUNCTION      0.00   696.75     0  01:41           0        2.07       0.001
  YS02001770           JUNCTION   2393.15  2794.95     0  01:50        3.75        3.92      -0.008
  YS02001774           JUNCTION      0.00   852.06     0  01:55           0        1.12       0.089
  YS02001779           JUNCTION      0.00   851.68     0  01:55           0        1.08      -0.096
  YS02001783           JUNCTION      0.00  1218.31     0  01:49           0        6.01      -0.001
  YS02001784           JUNCTION      0.00  1219.28     0  01:49           0        6.01       0.001
  YS02001786           JUNCTION      0.00  1219.12     0  01:49           0        6.01       0.003
  YS02001788           JUNCTION      0.00  1220.22     0  01:49           0        6.01       0.001
  YS02001790           JUNCTION      0.00  1220.00     0  01:49           0        6.01       0.042
  YS02001791           JUNCTION      0.00  1300.49     0  01:49           0        6.01      -0.057
  YS02001793           JUNCTION      0.00  1253.37     0  01:46           0        6.01       0.001
  YS02001882           JUNCTION      0.00    39.61     0  01:35           0      0.0145       3.288
  YS02001884           JUNCTION      0.00    71.64     0  01:35           0      0.0518       4.055
  YS02001887           JUNCTION   1796.53  1796.89     0  01:49        2.55        2.58       0.155
  YS02001890           JUNCTION      0.00  1797.49     0  01:49           0        2.54       0.166
  YS02001895           JUNCTION      0.00   520.22     0  01:52           0         1.8       0.109
  YS02001898           JUNCTION      0.00   518.71     0  01:52           0         1.8      -0.045
  YS02001901           JUNCTION      0.00   518.50     0  01:55           0         1.8       0.152
  YS02001904           JUNCTION      0.00   518.08     0  01:55           0         1.8       0.128
  YS02001907           JUNCTION      0.00  3749.44     0  01:50           0        7.33       0.231
  YS02001910           JUNCTION      0.00  1993.13     0  01:49           0        4.95       0.125
  YS02001915           JUNCTION   2131.43  3183.17     0  01:51        3.58        5.49       0.012
  YS02001918           JUNCTION      0.00  1051.35     0  01:51           0        1.93      -0.016
  YS02001920           JUNCTION      0.00  1051.63     0  01:51           0        1.92       0.011
  YS02001923           JUNCTION      0.00  1051.42     0  01:51           0        1.91      -0.028
  YS02001926           JUNCTION      0.00  1050.51     0  01:51           0        1.89       0.017
  YS02001929           JUNCTION   1050.20  1050.20     0  01:51        1.88        1.88      -0.057
  YS02006553           JUNCTION      0.00  1239.05     0  01:50           0        3.47       0.327
  YS02006556           JUNCTION      0.00  1235.40     0  01:50           0        3.49       0.207
  YS02006558           JUNCTION   2451.12  2451.12     0  01:50        3.74        6.62       0.054
  YS02006561           JUNCTION      0.00  1218.35     0  01:49           0        6.01      -0.008
  YS02163301           JUNCTION      0.00  1138.64     0  01:53           0        4.27       0.028
  YS02163601           JUNCTION      0.00  1311.63     0  01:36           0        5.55       0.086
  YS02164001           JUNCTION      0.00  1311.52     0  01:36           0        5.55       0.030
  CC-1                 OUTFALL       0.00   683.00     0  01:37           0        5.76       0.000
  CC-2                 OUTFALL       0.00   683.00     0  01:43           0        5.54       0.000
  JK-1                 OUTFALL       0.00  1000.00     0  01:28           0        3.95       0.000
  JK-2                 OUTFALL       0.00     0.00     0  00:00           0           0       0.000 ltr
  WSC                  OUTFALL       0.00   553.92     0  02:20           0        5.54       0.000
  CC-storage           STORAGE       0.00  3128.45     0  01:47           0        16.7      -0.131
  JK-storage           STORAGE       0.00  1253.61     0  01:46           0        6.16       0.031
  
  
  **********************
  Node Surcharge Summary
  **********************
  
  Surcharging occurs when water rises above the top of the highest conduit.
  ---------------------------------------------------------------------
                                               Max. Height   Min. Depth
                                   Hours       Above Crown    Below Rim
  Node                 Type      Surcharged         Meters       Meters
  ---------------------------------------------------------------------
  WS02006109           JUNCTION        2.45          0.416        1.404
  WS02006110           JUNCTION        1.67          0.544        1.306
  WS02006111           JUNCTION        0.01          0.856        1.014
  WS02006112           JUNCTION        1.67          1.680        0.000
  WS02006113           JUNCTION        0.01          0.705        1.225
  WS02006115           JUNCTION        0.01          0.682        1.568
  WS02006116           JUNCTION        0.01          0.053        2.237
  WS02006228           JUNCTION        2.43          0.810        1.390
  WS02006229           JUNCTION        2.46          0.510        1.940
  WS02006230           JUNCTION        1.66          0.248        1.322
  WS02006231           JUNCTION        1.73          0.539        0.991
  WS02006232           JUNCTION        2.49          0.960        0.520
  WS02006234           JUNCTION        1.89          1.240        0.000
  WS02006235           JUNCTION        2.42          1.159        0.131
  WS02006238           JUNCTION        2.46          1.150        0.280
  WS02006239           JUNCTION        2.41          0.941        0.349
  WS02006240           JUNCTION        2.42          0.900        0.490
  WS02006242           JUNCTION        2.44          0.820        0.000
  WS02006243           JUNCTION        2.42          0.770        0.000
  WS02006245           JUNCTION        2.42          0.800        0.050
  WS02006247           JUNCTION        2.42          0.716        0.044
  WS02006248           JUNCTION        2.41          0.380        0.000
  WS02006249           JUNCTION        2.41          0.390        0.000
  WS02006251           JUNCTION        1.80          0.339        0.841
  WS02006252           JUNCTION        2.46          1.100        0.000
  WS02006256           JUNCTION        3.18          2.050        0.000
  YS02001580           JUNCTION        1.24          0.450        0.000
  YS02001583           JUNCTION        1.25          0.500        0.000
  YS02001586           JUNCTION        1.48          0.510        0.000
  YS02001590           JUNCTION        1.54          0.748        0.002
  YS02001593           JUNCTION        1.55          0.718        0.122
  YS02001596           JUNCTION        1.63          0.980        0.090
  YS02001600           JUNCTION        1.75          1.190        0.000
  YS02001601           JUNCTION        1.99          1.440        0.000
  YS02001602           JUNCTION        1.92          1.270        0.000
  YS02001605           JUNCTION        1.89          1.180        0.000
  YS02001607           JUNCTION        1.55          0.652        0.028
  YS02001610           JUNCTION        1.57          0.680        0.000
  YS02001613           JUNCTION        1.55          0.669        0.031
  YS02001616           JUNCTION        1.52          0.610        0.000
  YS02001619           JUNCTION        1.50          0.610        0.000
  YS02001622           JUNCTION        1.51          0.595        0.025
  YS02001625           JUNCTION        1.65          0.780        0.000
  YS02001629           JUNCTION        1.47          0.470        0.000
  YS02001633           JUNCTION        1.70          1.060        0.000
  YS02001641           JUNCTION        1.67          0.967        0.133
  YS02001644           JUNCTION        1.65          0.920        0.000
  YS02001647           JUNCTION        1.48          0.803        0.097
  YS02001649           JUNCTION        1.61          1.050        0.000
  YS02001652           JUNCTION        1.44          1.018        0.112
  YS02001655           JUNCTION        1.33          1.000        0.200
  YS02001658           JUNCTION        0.81          0.911        0.389
  YS02001661           JUNCTION        0.30          0.790        0.600
  YS02001664           JUNCTION        0.13          0.543        0.767
  YS02001745           JUNCTION        0.12          0.260        1.090
  YS02001748           JUNCTION        0.64          0.537        0.653
  YS02001751           JUNCTION        1.20          0.730        0.470
  YS02001754           JUNCTION        1.41          0.875        0.275
  YS02001757           JUNCTION        1.68          1.176        0.034
  YS02001759           JUNCTION        1.60          1.177        0.033
  YS02001762           JUNCTION        1.58          1.125        0.025
  YS02001765           JUNCTION        1.54          1.057        0.043
  YS02001767           JUNCTION        1.52          0.998        0.032
  YS02001770           JUNCTION        1.49          0.920        0.000
  YS02001774           JUNCTION        1.56          1.003        0.047
  YS02001779           JUNCTION        1.39          0.680        0.000
  YS02001783           JUNCTION        1.02          0.528        1.072
  YS02001784           JUNCTION        0.99          0.386        1.104
  YS02001786           JUNCTION        0.84          0.114        1.316
  YS02001882           JUNCTION        0.94          0.791        0.039
  YS02001884           JUNCTION        0.95          0.834        0.036
  YS02001887           JUNCTION        1.01          0.918        0.032
  YS02001890           JUNCTION        1.03          0.760        0.000
  YS02001895           JUNCTION        0.92          0.581        0.169
  YS02001898           JUNCTION        0.91          0.560        0.180
  YS02001901           JUNCTION        0.99          0.693        0.177
  YS02001904           JUNCTION        0.97          0.737        0.113
  YS02001907           JUNCTION        1.34          0.950        0.000
  YS02001910           JUNCTION        1.07          1.014        0.086
  YS02001915           JUNCTION        0.94          1.000        0.000
  YS02001918           JUNCTION        0.82          0.810        0.000
  YS02001920           JUNCTION        0.84          1.077        0.063
  YS02001923           JUNCTION        0.39          0.775        0.045
  YS02001926           JUNCTION        0.43          0.900        0.000
  YS02001929           JUNCTION        0.27          0.780        0.000
  YS02006553           JUNCTION        1.38          1.028        0.162
  YS02006556           JUNCTION        1.19          1.054        0.296
  YS02006558           JUNCTION        1.18          1.093        0.307
  YS02006561           JUNCTION        0.77          0.210        0.940
  YS02163301           JUNCTION        1.68          0.967        0.063
  YS02163601           JUNCTION        1.74          1.080        0.000
  YS02164001           JUNCTION        1.67          0.977        0.123
  
  
  *********************
  Node Flooding Summary
  *********************
  
  Flooding refers to all water that overflows a node, whether it ponds or not.
  --------------------------------------------------------------------------
                                                             Total   Maximum
                                 Maximum   Time of Max       Flood    Ponded
                        Hours       Rate    Occurrence      Volume     Depth
  Node                 Flooded       LPS   days hr:min    10^6 ltr    Meters
  --------------------------------------------------------------------------
  WS02006112              0.01   1405.86      0  00:00       0.047     0.000
  WS02006234              0.01     44.93      0  03:22       0.000     0.000
  WS02006242              0.01      8.62      0  03:22       0.000     0.000
  WS02006243              0.01      0.82      0  03:23       0.000     0.000
  WS02006248              0.02     26.43      0  03:18       0.001     0.000
  WS02006249              1.76    102.65      0  01:34       0.435     0.000
  WS02006252              0.01      0.91      0  01:31       0.000     0.000
  WS02006256              1.90    279.87      0  03:17       0.705     0.000
  YS02001580              0.01      7.55      0  01:34       0.000     0.000
  YS02001583              0.01     68.21      0  01:34       0.000     0.000
  YS02001586              1.03   1391.86      0  01:52       1.845     0.000
  YS02001600              0.01      2.08      0  01:34       0.000     0.000
  YS02001601              1.40   2870.87      0  01:51       4.069     0.000
  YS02001602              1.32     62.11      0  02:13       0.276     0.000
  YS02001605              0.01      0.14      0  02:06       0.000     0.000
  YS02001610              1.15    954.38      0  01:56       2.067     0.000
  YS02001616              0.07      2.03      0  02:06       0.000     0.000
  YS02001619              0.33   1364.82      0  01:52       0.851     0.000
  YS02001625              1.19   1505.18      0  01:55       3.627     0.000
  YS02001629              0.41    687.06      0  01:52       0.454     0.000
  YS02001633              0.08    177.07      0  01:51       0.032     0.000
  YS02001644              0.63   3717.85      0  01:51       3.373     0.000
  YS02001649              0.10    542.96      0  01:49       0.105     0.000
  YS02001770              0.24   1944.29      0  01:50       0.866     0.000
  YS02001779              0.54    851.43      0  01:55       1.061     0.000
  YS02001890              0.44   1280.94      0  01:49       0.736     0.000
  YS02001907              0.74   3748.24      0  01:50       4.433     0.000
  YS02001915              0.21   1190.69      0  01:51       0.504     0.000
  YS02001918              0.01     93.19      0  01:39       0.001     0.000
  YS02001926              0.01     91.88      0  01:39       0.000     0.000
  YS02001929              0.01    221.95      0  01:39       0.001     0.000
  YS02163601              0.01      0.73      0  01:52       0.000     0.000
  
  
  **********************
  Storage Volume Summary
  **********************
  
  --------------------------------------------------------------------------------------------------
                         Average     Avg  Evap Exfil       Maximum     Max    Time of Max    Maximum
                          Volume    Pcnt  Pcnt  Pcnt        Volume    Pcnt     Occurrence    Outflow
  Storage Unit           1000 m3    Full  Loss  Loss       1000 m3    Full    days hr:min        LPS
  --------------------------------------------------------------------------------------------------
  CC-storage               3.243      51     0     0         5.847      91       0  02:31    1766.00
  JK-storage               0.126      43     0     0         0.211      73       0  01:34    1300.00
  
  
  ***********************
  Outfall Loading Summary
  ***********************
  
  -----------------------------------------------------------
                         Flow       Avg       Max       Total
                         Freq      Flow      Flow      Volume
  Outfall Node           Pcnt       LPS       LPS    10^6 ltr
  -----------------------------------------------------------
  CC-1                  44.61    683.00    683.00       5.760
  CC-2                  42.88    683.00    683.00       5.544
  JK-1                  23.31   1000.00   1000.00       3.949
  JK-2                   0.00      0.00      0.00       0.000
  WSC                   99.99    267.59    553.92       5.536
  -----------------------------------------------------------
  System                42.16   2633.59    553.92      20.790
  
  
  ********************
  Link Flow Summary
  ********************
  
  -----------------------------------------------------------------------------
                                 Maximum  Time of Max   Maximum    Max/    Max/
                                  |Flow|   Occurrence   |Veloc|    Full    Full
  Link                 Type          LPS  days hr:min     m/sec    Flow   Depth
  -----------------------------------------------------------------------------
  1                    CONDUIT    553.92     0  02:20      2.82    0.19    0.30
  WS02003060WS02003069 CONDUIT    551.93     0  02:33      1.64    0.22    0.34
  WS02003066WSF200     CONDUIT    535.44     0  02:32      2.85    0.09    0.22
  WS02003067WS02003066 CONDUIT    535.42     0  02:32      1.21    0.17    0.42
  WS02003069WS02003072 CONDUIT    552.14     0  02:18      1.37    0.27    0.39
  WS02003072WS02003073 CONDUIT    552.13     0  02:19      1.43    1.19    0.37
  WS02004401WS02004402 CONDUIT   1248.69     0  00:01      2.52    1.50    0.86
  WS02004402WS02004403 CONDUIT    929.44     0  00:01      2.21    1.34    0.88
  WS02004403WS02004404 CONDUIT    877.02     0  00:01      2.01    0.63    0.93
  WS02004404WS02004405 CONDUIT    827.31     0  00:01      2.30    8.11    0.96
  WS02004405WS02004406 CONDUIT    768.45     0  00:02      2.19    1.52    0.96
  WS02004406WS02004407 CONDUIT    536.45     0  02:03      1.04    0.24    0.63
  WS02004407WS02004409 CONDUIT    536.11     0  02:03      2.06    0.19    0.48
  WS02004409WS02004410 CONDUIT    535.77     0  02:04      1.39    0.69    0.67
  WS02004410WS02004411 CONDUIT    535.65     0  02:31      1.32    0.73    0.69
  WS02004411WS02004412 CONDUIT    535.56     0  02:31      1.28    0.76    0.69
  WS02004412WS02004413 CONDUIT    535.54     0  02:32      1.25    0.36    0.78
  WS02004413WS02003067 CONDUIT    535.41     0  02:32      1.11    0.23    0.59
  WS02006109WS02006110 CONDUIT   1446.81     0  00:00      2.88    2.78    1.00
  WS02006110WS02006113 CONDUIT    564.43     0  02:44      1.37    0.51    1.00
  WS02006111WS02006112 CONDUIT   2307.30     0  00:00      9.18    1.10    1.00
  WS02006112WS02006115 CONDUIT    953.54     0  00:00      1.24    0.56    1.00
  WS02006113WS02006111 CONDUIT   1180.41     0  00:00      2.46    1.41    1.00
  WS02006115WS02006116 CONDUIT   1264.47     0  00:00      1.74    1.62    1.00
  WS02006116WS02004401 CONDUIT   1786.04     0  00:00      2.94    2.46    0.84
  WS02006228WS02006109 CONDUIT    869.18     0  00:00      1.91    3.80    1.00
  WS02006229WS02006228 CONDUIT    551.94     0  02:44      1.10    1.83    1.00
  WS02006230WS02006229 CONDUIT    696.39     0  00:00      1.89   15.50    1.00
  WS02006231WS02006230 CONDUIT    578.88     0  03:23      1.91    8.78    1.00
  WS02006232WS02006231 CONDUIT    572.08     0  03:23      1.80    1.20    1.00
  WS02006234WS02006232 CONDUIT    570.34     0  03:23      1.48    1.15    1.00
  WS02006235WS02006234 CONDUIT    565.57     0  03:23      1.47    5.97    1.00
  WS02006238WS02006235 CONDUIT    459.68     0  03:22      1.19    1.03    1.00
  WS02006239WS02006238 CONDUIT    426.98     0  03:17      1.11    1.37    1.00
  WS02006240WS02006239 CONDUIT    422.24     0  03:06      1.10    1.33    1.00
  WS02006242WS02006240 CONDUIT    422.35     0  03:23      1.10    1.68    1.00
  WS02006243WS02006242 CONDUIT    422.87     0  03:21      1.10    0.90    1.00
  WS02006245WS02006243 CONDUIT    424.41     0  03:21      1.15    1.26    1.00
  WS02006247WS02006245 CONDUIT    423.56     0  03:21      1.10    3.36    1.00
  WS02006248WS02006247 CONDUIT    422.22     0  03:21      1.13    0.92    1.00
  WS02006249WS02006248 CONDUIT    422.26     0  03:23      1.22    2.31    1.00
  WS02006251WS02006249 CONDUIT    425.31     0  01:34      1.44    1.23    1.00
  WS02006252WS02006251 CONDUIT    407.29     0  01:34     16.02    1.49    1.00
  WS02006256WS02006235 CONDUIT    248.89     0  01:26      3.52    2.63    1.00
  WSF200WS02003060     CONDUIT    535.52     0  02:33      2.06    0.12    0.28
  YS02001580YS02001583 CONDUIT     80.59     0  01:34      0.58    0.31    1.00
  YS02001583YS02001586 CONDUIT    138.91     0  01:34      0.58    0.21    1.00
  YS02001586YS02001590 CONDUIT    318.59     0  01:52      1.24    0.56    1.00
  YS02001590YS02001593 CONDUIT    318.42     0  01:52      1.13    2.00    1.00
  YS02001593YS02001596 CONDUIT    318.32     0  01:50      1.67    0.50    1.00
  YS02001596YS02001600 CONDUIT    318.20     0  01:52      1.24    0.62    1.00
  YS02001600YS02001601 CONDUIT    318.17     0  01:52      1.13    0.55    1.00
  YS02001601YS02001602 CONDUIT    513.74     0  01:33      1.82    1.86    1.00
  YS02001602YS02001605 CONDUIT    513.77     0  01:33      1.82   10.87    1.00
  YS02001605YS02001607 CONDUIT    514.09     0  01:33      1.82    2.82    1.00
  YS02001607YS02001610 CONDUIT    515.97     0  01:33      0.66    0.49    1.00
  YS02001610YS02001613 CONDUIT    618.64     0  01:55      0.79    0.71    1.00
  YS02001613YS02001616 CONDUIT    618.38     0  01:55      0.79    0.53    1.00
  YS02001616YS02001619 CONDUIT    618.81     0  01:55      0.79    1.07    1.00
  YS02001619YS02001622 CONDUIT   1053.92     0  01:50      1.34    1.55    1.00
  YS02001622YS02001625 CONDUIT   1053.69     0  02:04      1.34    0.56    1.00
  YS02001625YS02001629 CONDUIT    908.15     0  01:36      1.16    0.43    1.00
  YS02001629YS02163301 CONDUIT   1138.79     0  01:53      1.45    1.40    1.00
  YS02001633YS02163601 CONDUIT   1311.63     0  01:36      1.67    1.38    1.00
  YS02001641YS02001644 CONDUIT   1310.53     0  01:36      1.67    4.24    1.00
  YS02001644YS02001647 CONDUIT   1677.60     0  01:37      2.16    0.99    1.00
  YS02001647YS02001649 CONDUIT   1684.93     0  01:37      2.30    0.89    1.00
  YS02001649YS02001757 CONDUIT   1828.34     0  01:36      2.37    1.11    1.00
  YS02001652YS02001649 CONDUIT   1940.93     0  01:50      2.47    0.96    1.00
  YS02001655YS02001652 CONDUIT   1939.91     0  01:50      2.47    0.94    1.00
  YS02001658YS02001655 CONDUIT   1938.71     0  01:50      2.47    0.82    1.00
  YS02001661YS02001658 CONDUIT   1936.65     0  01:50      2.47    0.76    1.00
  YS02001664YS02001661 CONDUIT   1934.96     0  01:50      2.46    0.61    1.00
  YS02001745YS02001748 CONDUIT   1209.88     0  01:49      2.07    0.47    1.00
  YS02001748YS02001751 CONDUIT   1209.97     0  01:50      1.64    0.61    1.00
  YS02001751YS02001754 CONDUIT   1210.28     0  01:50      1.54    0.58    1.00
  YS02001754YS02001757 CONDUIT   1210.44     0  01:49      1.54    0.49    1.00
  YS02001757CaochengTiaoxuchi CONDUIT   3128.45     0  01:47      3.98    1.35    1.00
  YS02001759YS02001757 CONDUIT   1387.36     0  01:48      1.77    0.99    1.00
  YS02001762YS02001759 CONDUIT    697.33     0  01:41      0.89    0.80    1.00
  YS02001765YS02001762 CONDUIT    697.49     0  01:41      0.89    0.65    1.00
  YS02001767YS02001765 CONDUIT    696.31     0  01:41      0.89    0.88    1.00
  YS02001770YS02001767 CONDUIT    696.75     0  01:41      0.89    2.76    1.00
  YS02001774YS02001770 CONDUIT    852.06     0  01:55      1.08    0.54    1.00
  YS02001779YS02001774 CONDUIT    851.68     0  01:55      1.08    0.43    1.00
  YS02001783YS02001784 CONDUIT   1219.28     0  01:49      2.43    1.68    1.00
  YS02001784YS02001785 CONDUIT   1219.12     0  01:49      2.43    2.84    1.00
  YS02001786YS02001788 CONDUIT   1220.22     0  01:49      2.56    2.35    0.90
  YS02001788YS02001790 CONDUIT   1220.00     0  01:49      2.76    0.90    0.84
  YS02001790YS02001791 CONDUIT   1300.49     0  01:49      3.45    1.41    0.71
  YS02001791YS02001793 CONDUIT   1253.37     0  01:46      6.79    0.54    0.41
  YS02001793JiankangQianchi CONDUIT   1253.61     0  01:46      2.51    0.10    0.61
  YS02001882YS02001884 CONDUIT     39.61     0  01:35      0.23    0.05    1.00
  YS02001884YS02001887 CONDUIT     71.64     0  01:35      0.18    0.10    1.00
  YS02001887YS02001890 CONDUIT   1797.49     0  01:49      2.29    3.08    1.00
  YS02001890YS02001895 CONDUIT    520.22     0  01:52      0.66    0.24    1.00
  YS02001895YS02001898 CONDUIT    518.71     0  01:52      0.66    0.90    1.00
  YS02001898YS02001901 CONDUIT    518.50     0  01:55      0.66    0.33    1.00
  YS02001901YS02001904 CONDUIT    518.08     0  01:55      0.66    0.80    1.00
  YS02001904YS02001907 CONDUIT    519.18     0  01:52      0.66    0.18    1.00
  YS02001907YS02006553 CONDUIT   1240.18     0  01:50      1.38    1.46    1.00
  YS02001910YS02001907 CONDUIT   1992.99     0  01:56      2.54    1.12    1.00
  YS02001915YS02001910 CONDUIT   1993.13     0  01:49      2.54    0.99    1.00
  YS02001918YS02001915 CONDUIT   1051.93     0  01:51      1.34    0.58    1.00
  YS02001920YS02001918 CONDUIT   1051.35     0  01:51      1.34    1.02    1.00
  YS02001923YS02001920 CONDUIT   1051.63     0  01:51      1.34    0.47    1.00
  YS02001926YS02001923 CONDUIT   1051.42     0  01:51      1.34    1.50    1.00
  YS02001929YS02001926 CONDUIT   1050.51     0  01:51      1.34    0.50    1.00
  YS02006553YS02006556 CONDUIT   1239.05     0  01:50      1.58    1.06    1.00
  YS02006556YS02006558 CONDUIT   1235.40     0  01:50      1.57    0.98    1.00
  YS02006558YS02006561 CONDUIT   1218.35     0  01:49      4.31    2.69    1.00
  YS02006561YS02001783 CONDUIT   1218.31     0  01:49      2.42    0.63    1.00
  YS02163301YS02001633 CONDUIT   1138.64     0  01:53      1.45    1.07    1.00
  YS02163601YS02164001 CONDUIT   1311.52     0  01:36      1.67    1.16    1.00
  YS02164001YS02001641 CONDUIT   1309.75     0  01:36      1.67    1.79    1.00
  CC-R1                PUMP       683.00     0  01:37              1.00
  CC-R2                PUMP       683.00     0  01:43              1.00
  CC-S1                PUMP       200.00     0  01:09              1.00
  CC-S2                PUMP       200.00     0  01:31              1.00
  JK-R1                PUMP      1000.00     0  01:28              1.00
  JK-R2                PUMP         0.00     0  00:00              0.00
  JK-S                 PUMP       300.00     0  01:26              1.00
  
  
  ***************************
  Flow Classification Summary
  ***************************
  
  -------------------------------------------------------------------------------------
                      Adjusted    ---------- Fraction of Time in Flow Class ---------- 
                       /Actual         Up    Down  Sub   Sup   Up    Down  Norm  Inlet 
  Conduit               Length    Dry  Dry   Dry   Crit  Crit  Crit  Crit  Ltd   Ctrl  
  -------------------------------------------------------------------------------------
  1                       1.00   0.00  0.00  0.00  0.00  1.00  0.00  0.00  0.67  0.00
  WS02003060WS02003069    1.00   0.00  0.00  0.00  0.97  0.03  0.00  0.00  0.67  0.00
  WS02003066WSF200        1.00   0.01  0.00  0.00  0.00  0.99  0.00  0.00  0.75  0.00
  WS02003067WS02003066    1.00   0.01  0.00  0.00  0.99  0.00  0.00  0.00  0.00  0.00
  WS02003069WS02003072    1.00   0.00  0.00  0.00  1.00  0.00  0.00  0.00  0.67  0.00
  WS02003072WS02003073    1.00   0.00  0.00  0.00  0.00  0.00  0.00  1.00  0.00  0.00
  WS02004401WS02004402    1.00   0.00  0.00  0.00  1.00  0.00  0.00  0.00  0.00  0.00
  WS02004402WS02004403    1.00   0.00  0.00  0.00  1.00  0.00  0.00  0.00  0.00  0.00
  WS02004403WS02004404    1.00   0.00  0.00  0.00  1.00  0.00  0.00  0.00  0.00  0.00
  WS02004404WS02004405    1.00   0.00  0.00  0.00  1.00  0.00  0.00  0.00  0.00  0.00
  WS02004405WS02004406    1.00   0.00  0.00  0.00  1.00  0.00  0.00  0.00  0.00  0.00
  WS02004406WS02004407    1.00   0.00  0.00  0.00  1.00  0.00  0.00  0.00  0.00  0.00
  WS02004407WS02004409    1.00   0.00  0.00  0.00  0.99  0.01  0.00  0.00  0.99  0.00
  WS02004409WS02004410    1.00   0.00  0.00  0.00  1.00  0.00  0.00  0.00  0.00  0.00
  WS02004410WS02004411    1.00   0.00  0.00  0.00  1.00  0.00  0.00  0.00  0.00  0.00
  WS02004411WS02004412    1.00   0.00  0.00  0.00  0.99  0.00  0.00  0.00  0.00  0.00
  WS02004412WS02004413    1.00   0.01  0.00  0.00  0.99  0.00  0.00  0.00  0.00  0.00
  WS02004413WS02003067    1.00   0.01  0.00  0.00  0.00  0.00  0.99  0.00  0.00  0.00
  WS02006109WS02006110    1.00   0.00  0.00  0.00  1.00  0.00  0.00  0.00  0.00  0.00
  WS02006110WS02006113    1.00   0.00  0.00  0.00  1.00  0.00  0.00  0.00  0.00  0.00
  WS02006111WS02006112    1.00   0.00  0.00  0.00  1.00  0.00  0.00  0.00  1.00  0.00
  WS02006112WS02006115    1.00   0.00  0.00  0.00  1.00  0.00  0.00  0.00  0.00  0.00
  WS02006113WS02006111    1.00   0.00  0.00  0.00  0.00  1.00  0.00  0.00  0.10  0.00
  WS02006115WS02006116    1.00   0.00  0.00  0.00  1.00  0.00  0.00  0.00  0.00  0.00
  WS02006116WS02004401    1.00   0.00  0.00  0.00  1.00  0.00  0.00  0.00  0.00  0.00
  WS02006228WS02006109    1.00   0.00  0.00  0.00  1.00  0.00  0.00  0.00  0.00  0.00
  WS02006229WS02006228    1.00   0.00  0.00  0.00  1.00  0.00  0.00  0.00  0.00  0.00
  WS02006230WS02006229    1.00   0.00  0.00  0.00  1.00  0.00  0.00  0.00  0.01  0.00
  WS02006231WS02006230    1.00   0.00  0.00  0.00  0.51  0.00  0.49  0.00  0.00  0.00
  WS02006232WS02006231    1.00   0.00  0.00  0.00  0.98  0.00  0.02  0.00  0.00  0.00
  WS02006234WS02006232    1.00   0.00  0.00  0.00  1.00  0.00  0.00  0.00  0.48  0.00
  WS02006235WS02006234    1.00   0.00  0.00  0.00  0.68  0.00  0.31  0.00  0.00  0.00
  WS02006238WS02006235    1.00   0.00  0.00  0.00  1.00  0.00  0.00  0.00  0.00  0.00
  WS02006239WS02006238    1.00   0.00  0.02  0.00  0.98  0.00  0.00  0.00  0.58  0.00
  WS02006240WS02006239    1.00   0.09  0.00  0.00  0.65  0.00  0.00  0.26  0.01  0.00
  WS02006242WS02006240    1.00   0.08  0.01  0.00  0.76  0.00  0.15  0.00  0.00  0.00
  WS02006243WS02006242    1.00   0.08  0.04  0.00  0.85  0.00  0.00  0.02  0.48  0.00
  WS02006245WS02006243    1.00   0.08  0.00  0.00  0.68  0.00  0.00  0.24  0.00  0.00
  WS02006247WS02006245    1.00   0.08  0.00  0.00  0.73  0.00  0.00  0.19  0.00  0.00
  WS02006248WS02006247    1.00   0.08  0.00  0.00  0.73  0.00  0.00  0.19  0.06  0.00
  WS02006249WS02006248    1.00   0.08  0.00  0.00  0.66  0.00  0.26  0.00  0.00  0.00
  WS02006251WS02006249    1.00   0.08  0.18  0.00  0.74  0.00  0.00  0.00  0.50  0.00
  WS02006252WS02006251    1.00   0.08  0.28  0.00  0.35  0.00  0.29  0.00  0.00  0.00
  WS02006256WS02006235    1.00   0.00  0.00  0.00  1.00  0.00  0.00  0.00  0.00  0.00
  WSF200WS02003060        1.00   0.00  0.01  0.00  0.42  0.56  0.00  0.00  0.65  0.00
  YS02001580YS02001583    1.00   0.25  0.31  0.00  0.45  0.00  0.00  0.00  0.61  0.00
  YS02001583YS02001586    1.00   0.20  0.29  0.00  0.51  0.00  0.00  0.00  0.62  0.00
  YS02001586YS02001590    1.00   0.07  0.00  0.00  0.73  0.02  0.00  0.18  0.31  0.00
  YS02001590YS02001593    1.00   0.07  0.00  0.00  0.36  0.00  0.57  0.00  0.00  0.00
  YS02001593YS02001596    1.00   0.07  0.00  0.00  0.40  0.02  0.00  0.51  0.01  0.00
  YS02001596YS02001600    1.00   0.07  0.00  0.00  0.51  0.02  0.00  0.40  0.03  0.00
  YS02001600YS02001601    1.00   0.07  0.00  0.00  0.93  0.00  0.00  0.00  0.56  0.00
  YS02001601YS02001602    1.00   0.07  0.00  0.00  0.93  0.00  0.00  0.00  0.00  0.00
  YS02001602YS02001605    1.00   0.07  0.00  0.00  0.93  0.00  0.00  0.00  0.00  0.00
  YS02001605YS02001607    1.00   0.07  0.00  0.00  0.93  0.00  0.00  0.00  0.00  0.00
  YS02001607YS02001610    1.00   0.07  0.00  0.00  0.93  0.00  0.00  0.00  0.01  0.00
  YS02001610YS02001613    1.00   0.07  0.00  0.00  0.93  0.00  0.00  0.00  0.00  0.00
  YS02001613YS02001616    1.00   0.07  0.00  0.00  0.93  0.00  0.00  0.00  0.00  0.00
  YS02001616YS02001619    1.00   0.07  0.00  0.00  0.93  0.00  0.00  0.00  0.00  0.00
  YS02001619YS02001622    1.00   0.07  0.00  0.00  0.93  0.00  0.00  0.00  0.26  0.00
  YS02001622YS02001625    1.00   0.07  0.00  0.00  0.93  0.00  0.00  0.00  0.02  0.00
  YS02001625YS02001629    1.00   0.07  0.03  0.00  0.45  0.00  0.45  0.00  0.00  0.00
  YS02001629YS02163301    1.00   0.07  0.00  0.00  0.92  0.00  0.00  0.00  0.00  0.00
  YS02001633YS02163601    1.00   0.07  0.00  0.00  0.93  0.00  0.00  0.00  0.01  0.00
  YS02001641YS02001644    1.00   0.07  0.00  0.00  0.93  0.00  0.00  0.00  0.00  0.00
  YS02001644YS02001647    1.00   0.07  0.02  0.00  0.91  0.00  0.00  0.00  0.00  0.00
  YS02001647YS02001649    1.00   0.07  0.01  0.00  0.74  0.18  0.00  0.00  0.56  0.00
  YS02001649YS02001757    1.00   0.00  0.07  0.00  0.67  0.25  0.00  0.00  0.15  0.00
  YS02001652YS02001649    1.00   0.07  0.00  0.00  0.88  0.04  0.00  0.00  0.56  0.00
  YS02001655YS02001652    1.00   0.07  0.00  0.00  0.46  0.02  0.00  0.45  0.03  0.00
  YS02001658YS02001655    1.00   0.07  0.00  0.00  0.67  0.25  0.00  0.00  0.59  0.00
  YS02001661YS02001658    1.00   0.07  0.00  0.00  0.54  0.39  0.00  0.00  0.61  0.00
  YS02001664YS02001661    1.00   0.07  0.00  0.00  0.75  0.18  0.00  0.00  0.79  0.00
  YS02001745YS02001748    1.00   0.07  0.00  0.00  0.35  0.00  0.00  0.58  0.03  0.00
  YS02001748YS02001751    1.00   0.07  0.00  0.00  0.72  0.21  0.00  0.00  0.58  0.00
  YS02001751YS02001754    1.00   0.07  0.00  0.00  0.42  0.02  0.00  0.50  0.02  0.00
  YS02001754YS02001757    1.00   0.00  0.07  0.00  0.93  0.00  0.00  0.00  0.60  0.00
  YS02001757CaochengTiaoxuchi    1.00   0.00  0.00  0.00  1.00  0.00  0.00  0.00  0.59  0.00
  YS02001759YS02001757    1.00   0.00  0.07  0.00  0.93  0.01  0.00  0.00  0.53  0.00
  YS02001762YS02001759    1.00   0.07  0.00  0.00  0.93  0.00  0.00  0.00  0.00  0.00
  YS02001765YS02001762    1.00   0.07  0.00  0.00  0.93  0.00  0.00  0.00  0.55  0.00
  YS02001767YS02001765    1.00   0.07  0.00  0.00  0.93  0.00  0.00  0.00  0.00  0.00
  YS02001770YS02001767    1.00   0.07  0.00  0.00  0.93  0.00  0.00  0.00  0.00  0.00
  YS02001774YS02001770    1.00   0.07  0.00  0.00  0.81  0.00  0.12  0.00  0.01  0.00
  YS02001779YS02001774    1.00   0.07  0.26  0.00  0.67  0.00  0.00  0.00  0.55  0.00
  YS02001783YS02001784    1.00   0.11  0.00  0.00  0.88  0.01  0.00  0.00  0.54  0.00
  YS02001784YS02001785    1.00   0.11  0.00  0.00  0.88  0.00  0.00  0.00  0.36  0.00
  YS02001786YS02001788    1.00   0.12  0.00  0.00  0.53  0.35  0.00  0.00  0.00  0.00
  YS02001788YS02001790    1.00   0.13  0.00  0.00  0.21  0.67  0.00  0.00  0.60  0.00
  YS02001790YS02001791    1.00   0.13  0.00  0.00  0.01  0.86  0.00  0.00  0.14  0.00
  YS02001791YS02001793    1.00   0.14  0.00  0.00  0.00  0.86  0.00  0.00  0.01  0.00
  YS02001793JiankangQianchi    1.00   0.00  0.14  0.00  0.71  0.15  0.00  0.00  0.83  0.00
  YS02001882YS02001884    1.00   0.08  0.00  0.00  0.92  0.00  0.00  0.00  0.00  0.00
  YS02001884YS02001887    1.00   0.07  0.00  0.00  0.93  0.00  0.00  0.00  0.00  0.00
  YS02001887YS02001890    1.00   0.07  0.00  0.00  0.93  0.00  0.00  0.00  0.00  0.00
  YS02001890YS02001895    1.00   0.07  0.01  0.00  0.92  0.00  0.00  0.00  0.00  0.00
  YS02001895YS02001898    1.00   0.08  0.00  0.00  0.87  0.00  0.04  0.00  0.00  0.00
  YS02001898YS02001901    1.00   0.08  0.00  0.00  0.91  0.01  0.00  0.00  0.00  0.00
  YS02001901YS02001904    1.00   0.08  0.01  0.00  0.91  0.00  0.00  0.00  0.00  0.00
  YS02001904YS02001907    1.00   0.07  0.02  0.00  0.91  0.00  0.00  0.00  0.00  0.00
  YS02001907YS02006553    1.00   0.07  0.00  0.00  0.93  0.00  0.00  0.00  0.00  0.00
  YS02001910YS02001907    1.00   0.07  0.00  0.00  0.92  0.00  0.00  0.01  0.01  0.00
  YS02001915YS02001910    1.00   0.07  0.00  0.00  0.91  0.03  0.00  0.00  0.01  0.00
  YS02001918YS02001915    1.00   0.07  0.02  0.00  0.92  0.00  0.00  0.00  0.65  0.00
  YS02001920YS02001918    1.00   0.07  0.01  0.00  0.92  0.00  0.00  0.00  0.00  0.00
  YS02001923YS02001920    1.00   0.07  0.00  0.00  0.93  0.00  0.00  0.00  0.71  0.00
  YS02001926YS02001923    1.00   0.07  0.01  0.00  0.19  0.00  0.73  0.00  0.00  0.00
  YS02001929YS02001926    1.00   0.07  0.00  0.00  0.93  0.00  0.00  0.00  0.76  0.00
  YS02006553YS02006556    1.00   0.07  0.00  0.00  0.93  0.00  0.00  0.00  0.00  0.00
  YS02006556YS02006558    1.00   0.07  0.00  0.00  0.93  0.00  0.00  0.00  0.00  0.00
  YS02006558YS02006561    1.00   0.11  0.00  0.00  0.18  0.71  0.00  0.00  0.13  0.00
  YS02006561YS02001783    1.00   0.11  0.00  0.00  0.33  0.56  0.00  0.00  0.62  0.00
  YS02163301YS02001633    1.00   0.07  0.01  0.00  0.93  0.00  0.00  0.00  0.00  0.00
  YS02163601YS02164001    1.00   0.07  0.00  0.00  0.93  0.00  0.00  0.00  0.01  0.00
  YS02164001YS02001641    1.00   0.07  0.00  0.00  0.93  0.00  0.00  0.00  0.00  0.00
  
  
  *************************
  Conduit Surcharge Summary
  *************************
  
  ----------------------------------------------------------------------------
                                                           Hours        Hours 
                         --------- Hours Full --------   Above Full   Capacity
  Conduit                Both Ends  Upstream  Dnstream   Normal Flow   Limited
  ----------------------------------------------------------------------------
  WS02003072WS02003073        0.01      0.01      0.01      1.92         0.01
  WS02004401WS02004402        0.01      0.01      0.01      0.01         0.01
  WS02004402WS02004403        0.01      0.01      0.01      0.02         0.01
  WS02004404WS02004405        0.01      0.01      0.01      2.88         0.01
  WS02004405WS02004406        0.01      0.01      0.01      1.63         0.01
  WS02006109WS02006110        1.67      1.67      2.50      1.70         0.01
  WS02006110WS02006113        0.01      0.01      2.48      0.01         0.01
  WS02006111WS02006112        0.01      0.01      2.55      0.01         0.01
  WS02006112WS02006115        0.01      0.01      1.66      0.01         0.01
  WS02006113WS02006111        0.01      0.01      0.01      0.01         0.01
  WS02006115WS02006116        0.01      0.01      0.01      0.01         0.01
  WS02006116WS02004401        0.01      0.01      0.01      0.02         0.01
  WS02006228WS02006109        2.44      2.49      2.45      2.63         2.44
  WS02006229WS02006228        2.43      2.45      2.43      2.58         2.42
  WS02006230WS02006229        2.52      2.56      2.53      2.94         2.52
  WS02006231WS02006230        1.66      1.66      1.76      2.82         0.01
  WS02006232WS02006231        1.73      1.73      2.49      1.77         0.01
  WS02006234WS02006232        2.39      2.39      2.49      1.75         1.74
  WS02006235WS02006234        1.88      1.88      2.41      2.78         0.02
  WS02006238WS02006235        2.44      2.44      2.49      0.01         0.01
  WS02006239WS02006238        2.43      2.44      2.46      2.43         2.21
  WS02006240WS02006239        2.41      2.43      2.41      2.42         2.00
  WS02006242WS02006240        2.42      2.42      2.44      2.44         0.01
  WS02006243WS02006242        2.42      2.42      2.44      0.01         0.05
  WS02006245WS02006243        2.42      2.42      2.42      0.74         1.06
  WS02006247WS02006245        2.42      2.42      2.42      2.72         2.40
  WS02006248WS02006247        2.41      2.41      2.42      0.01         0.06
  WS02006249WS02006248        2.41      2.41      2.41      2.71         0.01
  WS02006251WS02006249        2.41      2.41      2.41      2.43         2.36
  WS02006252WS02006251        2.44      2.44      2.45      2.44         0.01
  WS02006256WS02006235        2.78      2.80      3.16      1.89         0.01
  YS02001580YS02001583        1.24      1.24      1.33      0.01         0.01
  YS02001583YS02001586        1.25      1.25      1.48      0.01         0.01
  YS02001586YS02001590        1.49      1.49      1.54      0.01         0.01
  YS02001590YS02001593        1.55      1.55      1.56      1.54         0.01
  YS02001593YS02001596        1.55      1.55      1.63      0.01         0.01
  YS02001596YS02001600        1.68      1.68      1.75      0.01         0.01
  YS02001600YS02001601        1.79      1.79      1.99      0.01         0.01
  YS02001601YS02001602        1.92      1.92      2.02      1.73         0.01
  YS02001602YS02001605        1.89      1.89      1.92      2.61         0.01
  YS02001605YS02001607        1.86      1.89      1.87      1.90         1.80
  YS02001607YS02001610        1.55      1.55      1.57      0.01         0.01
  YS02001610YS02001613        1.55      1.55      1.57      0.01         0.01
  YS02001613YS02001616        1.52      1.52      1.55      0.01         0.01
  YS02001616YS02001619        1.50      1.50      1.52      0.31         0.30
  YS02001619YS02001622        1.50      1.50      1.51      1.47         1.36
  YS02001622YS02001625        1.51      1.51      1.65      0.01         0.01
  YS02001625YS02001629        1.47      1.47      1.65      0.01         0.01
  YS02001629YS02163301        1.66      1.66      1.68      0.23         0.07
  YS02001633YS02163601        1.70      1.70      1.74      0.10         0.11
  YS02001641YS02001644        1.65      1.67      1.65      2.05         1.60
  YS02001644YS02001647        1.48      1.48      1.65      0.01         0.01
  YS02001647YS02001649        1.48      1.48      1.61      0.01         0.01
  YS02001649YS02001757        1.61      1.61      1.68      0.06         0.03
  YS02001652YS02001649        1.47      1.47      1.61      0.01         0.01
  YS02001655YS02001652        1.33      1.33      1.44      0.01         0.01
  YS02001658YS02001655        0.81      0.81      1.33      0.01         0.01
  YS02001661YS02001658        0.30      0.30      0.81      0.01         0.01
  YS02001664YS02001661        0.13      0.13      0.38      0.01         0.01
  YS02001745YS02001748        0.12      0.12      0.64      0.01         0.01
  YS02001748YS02001751        0.79      0.79      1.20      0.01         0.01
  YS02001751YS02001754        1.20      1.20      1.41      0.01         0.01
  YS02001754YS02001757        1.43      1.43      1.68      0.01         0.01
  YS02001757CaochengTiaoxuchi        1.68      1.68      2.20      0.55         0.55
  YS02001759YS02001757        1.60      1.60      1.68      0.01         0.02
  YS02001762YS02001759        1.58      1.58      1.60      0.01         0.02
  YS02001765YS02001762        1.54      1.54      1.58      0.01         0.01
  YS02001767YS02001765        1.52      1.52      1.54      0.01         0.02
  YS02001770YS02001767        1.51      1.51      1.52      0.93         0.80
  YS02001774YS02001770        1.49      1.49      1.56      0.01         0.01
  YS02001779YS02001774        1.39      1.39      1.56      0.01         0.01
  YS02001783YS02001784        0.99      1.02      0.99      1.24         0.99
  YS02001784YS02001785        0.84      0.99      0.84      1.59         0.84
  YS02001786YS02001788        0.01      0.84      0.01      1.43         0.01
  YS02001790YS02001791        0.01      0.01      0.01      0.96         0.01
  YS02001793JiankangQianchi        0.01      0.01      6.66      0.01         0.01
  YS02001882YS02001884        0.94      0.94      0.95      0.01         0.01
  YS02001884YS02001887        0.99      0.99      1.01      0.01         0.01
  YS02001887YS02001890        1.03      1.03      1.04      0.35         0.01
  YS02001890YS02001895        0.92      0.92      1.07      0.01         0.01
  YS02001895YS02001898        0.91      0.91      0.92      0.01         0.01
  YS02001898YS02001901        0.93      0.93      0.99      0.01         0.01
  YS02001901YS02001904        0.97      0.97      0.99      0.01         0.01
  YS02001904YS02001907        0.97      0.97      1.39      0.01         0.01
  YS02001907YS02006553        1.61      1.61      1.64      0.09         0.09
  YS02001910YS02001907        1.07      1.07      1.34      0.24         0.24
  YS02001915YS02001910        0.94      0.94      1.07      0.01         0.02
  YS02001918YS02001915        0.82      0.82      0.94      0.01         0.01
  YS02001920YS02001918        0.82      0.82      0.84      0.03         0.01
  YS02001923YS02001920        0.76      0.76      0.84      0.01         0.01
  YS02001926YS02001923        0.39      0.39      0.43      0.20         0.01
  YS02001929YS02001926        0.27      0.27      0.43      0.01         0.01
  YS02006553YS02006556        1.19      1.19      1.38      0.03         0.03
  YS02006556YS02006558        1.27      1.27      1.42      0.01         0.01
  YS02006558YS02006561        0.86      1.18      0.86      1.55         0.86
  YS02006561YS02001783        0.77      0.77      1.02      0.01         0.01
  YS02163301YS02001633        1.68      1.68      1.72      0.09         0.01
  YS02163601YS02164001        1.67      1.67      1.74      0.07         0.01
  YS02164001YS02001641        1.67      1.67      1.67      0.85         0.81
  
  
  ***************
  Pumping Summary
  ***************
  
  ---------------------------------------------------------------------------------------------------------
                                                  Min       Avg       Max     Total     Power    % Time Off
                        Percent   Number of      Flow      Flow      Flow    Volume     Usage    Pump Curve
  Pump                 Utilized   Start-Ups       LPS       LPS       LPS  10^6 ltr     Kw-hr    Low   High
  ---------------------------------------------------------------------------------------------------------
  CC-R1                   29.28           1      0.00    683.00    683.00     5.760    112.59    0.0   43.5
  CC-R2                   28.19           1      0.00    683.00    683.00     5.544    108.60    0.0   45.2
  CC-S1                   34.41           7      0.00    200.00    200.00     1.982      9.66    0.0   28.1
  CC-S2                   30.54           1      0.00    200.00    200.00     1.759      8.29    0.0   31.7
  JK-R1                   13.71          69      0.00   1000.00   1000.00     3.947     27.13    0.0    0.0
  JK-R2                    0.00           0      0.00      0.00      0.00     0.000      0.00    0.0    0.0
  JK-S                    23.70          15      0.00    300.00    300.00     2.048     36.53    0.0    0.0
  

  Analysis begun on:  Thu Sep  7 10:19:54 2023
  Analysis ended on:  Thu Sep  7 10:20:31 2023
  Total elapsed time: 00:00:37