
  OWA STORM WATER MANAGEMENT MODEL - VERSION v5.1.14 (OWA 2022-07-31)
  --------------------------------------------------------------

  WARNING 04: minimum elevation drop used for Conduit WS02004404WS02004405
  WARNING 03: negative offset ignored for Link YS02001904YS02001907
  
  *********************************************************
  NOTE: The summary statistics displayed in this report are
  based on results found at every computational time step,  
  not just on results from each reporting time step.
  *********************************************************
  
  ****************
  Analysis Options
  ****************
  Flow Units ............... LPS
  Process Models:
    Rainfall/Runoff ........ YES
    RDII ................... NO
    Snowmelt ............... NO
    Groundwater ............ NO
    Flow Routing ........... YES
    Ponding Allowed ........ NO
    Water Quality .......... NO
  Infiltration Method ...... HORTON
  Flow Routing Method ...... DYNWAVE
  Surcharge Method ......... EXTRAN
  Starting Date ............ 08/28/2015 08:00:00
  Ending Date .............. 08/28/2015 16:00:00
  Antecedent Dry Days ...... 8.0
  Report Time Step ......... 00:01:00
  Wet Time Step ............ 00:01:00
  Dry Time Step ............ 00:01:00
  Routing Time Step ........ 30.00 sec
  Variable Time Step ....... YES
  Maximum Trials ........... 8
  Number of Threads ........ 4
  Head Tolerance ........... 0.001500 m
  
  
  **************************        Volume         Depth
  Runoff Quantity Continuity     hectare-m            mm
  **************************     ---------       -------
  Total Precipitation ......        10.502       316.614
  Evaporation Loss .........         0.000         0.000
  Infiltration Loss ........         0.113         3.412
  Surface Runoff ...........        10.359       312.299
  Final Storage ............         0.033         1.001
  Continuity Error (%) .....        -0.031
  
  
  **************************        Volume        Volume
  Flow Routing Continuity        hectare-m      10^6 ltr
  **************************     ---------     ---------
  Dry Weather Inflow .......         0.025         0.251
  Wet Weather Inflow .......        10.359       103.589
  Groundwater Inflow .......         0.000         0.000
  RDII Inflow ..............         0.000         0.000
  External Inflow ..........         0.083         0.834
  External Outflow .........         2.594        25.944
  Flooding Loss ............         7.920        79.201
  Evaporation Loss .........         0.000         0.000
  Exfiltration Loss ........         0.000         0.000
  Initial Stored Volume ....         0.243         2.431
  Final Stored Volume ......         0.222         2.218
  Continuity Error (%) .....        -0.242
  
  
  *************************
  Highest Continuity Errors
  *************************
  Node YS02001884 (4.57%)
  Node YS02001583 (-3.56%)
  
  
  ***************************
  Time-Step Critical Elements
  ***************************
  Link WS02004404WS02004405 (30.07%)
  Link YS02001791YS02001793 (28.75%)
  Link WS02006252WS02006251 (13.75%)
  Link WS02006235WS02006234 (6.44%)
  Link WS02003066WSF200 (5.74%)
  
  
  ********************************
  Highest Flow Instability Indexes
  ********************************
  Link WS02006238WS02006235 (43)
  Link WS02006113WS02006111 (39)
  Link WS02006252WS02006251 (34)
  Link YS02001602YS02001605 (33)
  Link WS02006239WS02006238 (31)
  
  
  *************************
  Routing Time Step Summary
  *************************
  Minimum Time Step           :     0.02 sec
  Average Time Step           :     2.89 sec
  Maximum Time Step           :    30.00 sec
  Percent in Steady State     :     0.00
  Average Iterations per Step :     4.13
  Percent Not Converging      :    23.41
  
  
  ***************************
  Subcatchment Runoff Summary
  ***************************
  
  ------------------------------------------------------------------------------------------------------------------------------
                            Total      Total      Total      Total     Imperv       Perv      Total       Total     Peak  Runoff
                           Precip      Runon       Evap      Infil     Runoff     Runoff     Runoff      Runoff   Runoff   Coeff
  Subcatchment                 mm         mm         mm         mm         mm         mm         mm    10^6 ltr      LPS
  ------------------------------------------------------------------------------------------------------------------------------
  sub60                    316.61       0.00       0.00       1.97     277.51      36.04     313.55        4.12  3066.39   0.990
  sub61                    316.61       0.00       0.00       2.87     261.75      50.97     312.72        5.74  4276.60   0.988
  sub62                    316.61       0.00       0.00       1.31     290.08      24.03     314.11        8.61  6156.70   0.992
  sub63                    316.61       0.00       0.00       5.39     223.90      86.45     310.35        7.04  5064.97   0.980
  sub64                    316.61       0.00       0.00       2.71     267.99      44.79     312.78        7.51  5221.36   0.988
  sub65                    316.61       0.00       0.00       2.35     274.27      38.82     313.09        8.62  5927.19   0.989
  sub66                    316.61       0.00       0.00       6.86     223.76      84.97     308.73       14.40  8981.20   0.975
  sub67                    316.61       0.00       0.00       1.24     290.15      24.10     314.24        5.84  4477.37   0.993
  sub68                    316.61       0.00       0.00       2.38     271.19      41.96     313.14        8.62  6271.98   0.989
  sub69                    316.61       0.00       0.00       2.22     269.08      45.28     314.36       11.64  7924.18   0.993
  sub70                    316.61       0.00       0.00       7.68     208.83      99.98     308.81        8.92  5219.07   0.975
  sub71                    316.61       0.00       0.00       1.36     290.03      23.98     314.01        8.21  5660.97   0.992
  sub72                    316.61       0.00       0.00       1.21     293.10      20.96     314.06        4.32  2877.55   0.992
  
  
  ******************
  Node Depth Summary
  ******************
  
  ---------------------------------------------------------------------------------
                                 Average  Maximum  Maximum  Time of Max    Reported
                                   Depth    Depth      HGL   Occurrence   Max Depth
  Node                 Type       Meters   Meters   Meters  days hr:min      Meters
  ---------------------------------------------------------------------------------
  WS02003060           JUNCTION     0.25     0.38     5.32     0  02:55        0.38
  WS02003066           JUNCTION     0.20     0.30     5.85     0  02:54        0.30
  WS02003067           JUNCTION     0.52     0.70     6.02     0  02:54        0.70
  WS02003069           JUNCTION     0.27     0.43     5.01     0  02:56        0.43
  WS02003072           JUNCTION     0.33     0.50     4.87     0  02:56        0.50
  WS02003073           JUNCTION     0.19     0.30     4.36     0  02:57        0.30
  WS02004401           JUNCTION     0.62     0.85     6.85     0  02:52        0.85
  WS02004402           JUNCTION     0.66     0.88     6.84     0  02:52        0.88
  WS02004403           JUNCTION     0.68     0.89     6.82     0  02:52        0.89
  WS02004404           JUNCTION     0.75     0.96     6.81     0  02:52        0.96
  WS02004405           JUNCTION     0.75     0.96     6.81     0  02:52        0.96
  WS02004406           JUNCTION     0.76     0.96     6.79     0  02:52        0.96
  WS02004407           JUNCTION     0.18     0.30     6.61     0  02:53        0.30
  WS02004409           JUNCTION     0.42     0.67     6.44     0  02:53        0.67
  WS02004410           JUNCTION     0.44     0.68     6.40     0  02:53        0.68
  WS02004411           JUNCTION     0.46     0.69     6.37     0  02:53        0.69
  WS02004412           JUNCTION     0.48     0.70     6.34     0  02:06        0.70
  WS02004413           JUNCTION     0.65     0.86     6.33     0  02:54        0.86
  WS02006109           JUNCTION     0.69     1.10     7.72     0  01:43        1.02
  WS02006110           JUNCTION     0.68     1.10     7.68     0  01:43        0.97
  WS02006111           JUNCTION     0.18     0.90     7.60     0  00:00        0.40
  WS02006112           JUNCTION     0.79     2.68     8.56     0  00:00        1.14
  WS02006113           JUNCTION     0.28     1.40     8.29     0  00:00        0.46
  WS02006115           JUNCTION     0.51     1.65     7.79     0  00:00        0.86
  WS02006116           JUNCTION     0.60     1.06     7.10     0  00:00        0.83
  WS02006228           JUNCTION     0.69     1.10     7.75     0  01:43        1.06
  WS02006229           JUNCTION     0.67     1.13     7.82     0  03:08        1.06
  WS02006230           JUNCTION     0.69     1.27     8.02     0  03:08        1.22
  WS02006231           JUNCTION     0.47     1.12     8.24     0  03:45        0.94
  WS02006232           JUNCTION     0.62     1.30     8.34     0  03:35        1.11
  WS02006234           JUNCTION     0.57     1.46     8.61     0  03:35        1.12
  WS02006235           JUNCTION     0.62     1.55     8.71     0  01:24        1.55
  WS02006238           JUNCTION     0.65     1.74     8.89     0  01:24        1.74
  WS02006239           JUNCTION     0.63     2.03     9.24     0  01:24        2.03
  WS02006240           JUNCTION     0.61     2.10     9.39     0  01:24        2.10
  WS02006242           JUNCTION     0.68     1.55     8.82     0  01:24        1.55
  WS02006243           JUNCTION     0.61     1.48     8.90     0  03:38        1.48
  WS02006245           JUNCTION     0.61     1.56     9.04     0  03:38        1.56
  WS02006247           JUNCTION     0.63     1.47     8.97     0  03:38        1.47
  WS02006248           JUNCTION     0.59     1.10     8.69     0  01:23        1.10
  WS02006249           JUNCTION     0.62     1.09     8.69     0  01:23        1.09
  WS02006251           JUNCTION     0.63     1.67     9.34     0  01:24        1.13
  WS02006252           JUNCTION     0.40     1.50     9.74     0  01:21        0.68
  WS02006256           JUNCTION     1.29     2.35     9.28     0  01:16        2.35
  WSF200               JUNCTION     0.18     0.29     5.52     0  02:54        0.29
  YS02001580           JUNCTION     0.28     1.00     9.54     0  01:22        0.77
  YS02001583           JUNCTION     0.31     1.01     9.50     0  01:22        0.82
  YS02001586           JUNCTION     0.48     1.13     9.30     0  01:22        1.13
  YS02001590           JUNCTION     0.63     1.40     9.26     0  01:53        1.40
  YS02001593           JUNCTION     0.55     1.30     9.16     0  01:22        1.29
  YS02001596           JUNCTION     0.74     1.66     9.08     0  01:53        1.66
  YS02001600           JUNCTION     0.86     1.87     9.00     0  01:37        1.87
  YS02001601           JUNCTION     1.07     2.06     8.90     0  01:21        2.06
  YS02001602           JUNCTION     0.94     1.87     8.77     0  01:27        1.87
  YS02001605           JUNCTION     0.88     1.78     8.68     0  02:05        1.78
  YS02001607           JUNCTION     0.81     1.67     8.51     0  01:37        1.66
  YS02001610           JUNCTION     0.86     1.68     8.48     0  01:28        1.68
  YS02001613           JUNCTION     0.82     1.68     8.52     0  01:53        1.68
  YS02001616           JUNCTION     0.75     1.61     8.52     0  02:06        1.61
  YS02001619           JUNCTION     0.73     1.61     8.54     0  02:05        1.61
  YS02001622           JUNCTION     0.72     1.59     8.49     0  02:42        1.59
  YS02001625           JUNCTION     0.96     1.78     8.38     0  01:28        1.78
  YS02001629           JUNCTION     0.90     1.85     8.40     0  01:35        1.85
  YS02001633           JUNCTION     0.99     2.08     8.53     0  01:37        2.08
  YS02001641           JUNCTION     0.95     2.10     8.54     0  01:37        2.10
  YS02001644           JUNCTION     0.94     1.92     8.35     0  01:35        1.92
  YS02001647           JUNCTION     0.74     1.79     8.40     0  02:19        1.79
  YS02001649           JUNCTION     0.85     2.05     8.44     0  02:19        2.05
  YS02001652           JUNCTION     0.73     2.15     8.75     0  02:40        2.14
  YS02001655           JUNCTION     0.62     2.20     9.05     0  02:28        2.20
  YS02001658           JUNCTION     0.51     2.30     9.44     0  02:29        2.30
  YS02001661           JUNCTION     0.47     2.44     9.85     0  02:30        2.44
  YS02001664           JUNCTION     0.27     2.31    10.23     0  02:30        2.31
  YS02001745           JUNCTION     0.32     2.35     9.87     0  02:34        2.35
  YS02001748           JUNCTION     0.49     2.27     9.35     0  02:30        2.27
  YS02001751           JUNCTION     0.56     2.20     9.08     0  02:30        2.20
  YS02001754           JUNCTION     0.68     2.18     8.79     0  02:34        2.18
  YS02001757           JUNCTION     0.90     2.21     8.47     0  02:28        2.21
  YS02001759           JUNCTION     0.84     2.21     8.57     0  02:28        2.21
  YS02001762           JUNCTION     0.82     2.15     8.55     0  02:28        2.15
  YS02001765           JUNCTION     0.79     2.09     8.54     0  02:33        2.08
  YS02001767           JUNCTION     0.77     2.02     8.50     0  02:40        2.01
  YS02001770           JUNCTION     0.78     1.95     8.44     0  02:11        1.95
  YS02001774           JUNCTION     0.84     2.00     8.42     0  02:40        2.00
  YS02001779           JUNCTION     0.64     1.68     8.37     0  01:44        1.68
  YS02001783           JUNCTION     0.51     1.57     7.71     0  02:30        1.57
  YS02001784           JUNCTION     0.49     1.37     7.43     0  02:30        1.37
  YS02001786           JUNCTION     0.40     1.00     7.03     0  02:39        0.99
  YS02001788           JUNCTION     0.28     0.69     6.67     0  02:31        0.69
  YS02001790           JUNCTION     0.32     0.80     6.45     0  02:40        0.79
  YS02001791           JUNCTION     0.20     0.48     5.95     0  02:31        0.45
  YS02001793           JUNCTION     0.11     0.32     5.15     0  02:20        0.31
  YS02001882           JUNCTION     0.66     1.83     8.55     0  02:39        1.83
  YS02001884           JUNCTION     0.75     1.93     8.55     0  02:29        1.93
  YS02001887           JUNCTION     0.83     2.00     8.54     0  02:27        2.00
  YS02001890           JUNCTION     0.85     1.81     8.32     0  01:52        1.81
  YS02001895           JUNCTION     0.61     1.58     8.33     0  01:53        1.58
  YS02001898           JUNCTION     0.62     1.57     8.30     0  02:05        1.57
  YS02001901           JUNCTION     0.73     1.68     8.29     0  02:05        1.68
  YS02001904           JUNCTION     0.70     1.65     8.28     0  02:05        1.65
  YS02001907           JUNCTION     1.03     1.96     8.25     0  01:32        1.96
  YS02001910           JUNCTION     0.86     2.01     8.52     0  02:42        2.01
  YS02001915           JUNCTION     0.70     2.00     8.72     0  02:15        2.00
  YS02001918           JUNCTION     0.51     1.81     8.88     0  02:26        1.81
  YS02001920           JUNCTION     0.60     2.10     9.11     0  02:30        2.10
  YS02001923           JUNCTION     0.45     2.01     9.27     0  02:30        2.01
  YS02001926           JUNCTION     0.44     1.90     9.35     0  02:30        1.90
  YS02001929           JUNCTION     0.33     1.78     9.47     0  02:30        1.78
  YS02006553           JUNCTION     1.04     2.18     8.46     0  02:30        2.18
  YS02006556           JUNCTION     1.02     2.39     8.70     0  02:30        2.39
  YS02006558           JUNCTION     1.06     2.50     8.77     0  02:30        2.50
  YS02006561           JUNCTION     0.35     1.27     7.93     0  02:30        1.27
  YS02163301           JUNCTION     0.93     2.03     8.54     0  01:37        2.03
  YS02163601           JUNCTION     1.02     2.08     8.48     0  01:37        2.08
  YS02164001           JUNCTION     0.94     2.10     8.56     0  01:37        2.10
  CC-1                 OUTFALL      0.00     0.00     0.00     0  00:00        0.00
  CC-2                 OUTFALL      0.00     0.00     0.00     0  00:00        0.00
  JK-1                 OUTFALL      0.00     0.00     0.00     0  00:00        0.00
  JK-2                 OUTFALL      0.00     0.00     0.00     0  00:00        0.00
  WSC                  OUTFALL      0.19     0.30     0.97     0  02:58        0.30
  CC-storage           STORAGE      1.28     2.30     7.80     0  02:34        2.30
  JK-storage           STORAGE      2.92     4.24     5.04     0  02:15        4.24
  
  
  *******************
  Node Inflow Summary
  *******************
  
  -------------------------------------------------------------------------------------------------
                                  Maximum  Maximum                  Lateral       Total        Flow
                                  Lateral    Total  Time of Max      Inflow      Inflow     Balance
                                   Inflow   Inflow   Occurrence      Volume      Volume       Error
  Node                 Type           LPS      LPS  days hr:min    10^6 ltr    10^6 ltr     Percent
  -------------------------------------------------------------------------------------------------
  WS02003060           JUNCTION     16.53   553.39     0  02:55       0.476        6.31       0.033
  WS02003066           JUNCTION      0.00   536.73     0  02:54           0        5.83       0.021
  WS02003067           JUNCTION      0.00   536.69     0  02:54           0        5.84       0.068
  WS02003069           JUNCTION      0.32   553.65     0  02:55     0.00922        6.32       0.055
  WS02003072           JUNCTION      0.00   553.51     0  02:56           0        6.31       0.099
  WS02003073           JUNCTION      1.82   555.26     0  02:57      0.0524        6.36       0.077
  WS02004401           JUNCTION      0.00  1677.78     0  00:00           0        5.94       0.185
  WS02004402           JUNCTION      0.00  1171.33     0  00:01           0        5.93       0.182
  WS02004403           JUNCTION      0.00   884.75     0  00:01           0        5.92       0.178
  WS02004404           JUNCTION      0.16   832.59     0  00:01     0.00467        5.91       0.143
  WS02004405           JUNCTION      0.04   776.49     0  00:01      0.0011         5.9       0.212
  WS02004406           JUNCTION      0.00   711.76     0  00:02           0        5.89       0.360
  WS02004407           JUNCTION      0.00   537.28     0  02:53           0        5.87       0.015
  WS02004409           JUNCTION      0.00   537.14     0  02:53           0        5.87       0.038
  WS02004410           JUNCTION      0.00   536.97     0  02:53           0        5.87       0.067
  WS02004411           JUNCTION      0.00   536.89     0  02:53           0        5.86       0.089
  WS02004412           JUNCTION      0.00   536.84     0  02:54           0        5.86       0.118
  WS02004413           JUNCTION      0.00   536.79     0  02:06           0        5.85       0.219
  WS02006109           JUNCTION      1.23  1308.01     0  00:00      0.0354        5.87       0.158
  WS02006110           JUNCTION      0.00   552.66     0  01:43           0        5.84      -0.629
  WS02006111           JUNCTION      0.00  1176.04     0  00:00           0        5.87      -0.660
  WS02006112           JUNCTION      0.00  2307.30     0  00:00           0        5.91      -0.018
  WS02006113           JUNCTION      0.00   565.00     0  01:43           0        5.83      -0.851
  WS02006115           JUNCTION      0.00   899.27     0  00:00           0        5.89      -0.555
  WS02006116           JUNCTION      0.00  1098.16     0  00:01           0        5.92      -0.401
  WS02006228           JUNCTION      0.00   550.02     0  01:43           0        5.82       0.075
  WS02006229           JUNCTION      0.00   550.43     0  01:43           0         5.8       0.113
  WS02006230           JUNCTION     10.28   597.69     0  03:37       0.296        5.78      -0.005
  WS02006231           JUNCTION      0.00   575.33     0  03:33           0        5.48      -0.034
  WS02006232           JUNCTION      0.00   574.50     0  03:33           0        5.48       0.082
  WS02006234           JUNCTION      0.00   569.82     0  03:33           0        5.47      -0.059
  WS02006235           JUNCTION      0.00   561.38     0  03:33           0        5.47      -0.002
  WS02006238           JUNCTION      0.00   431.54     0  03:43           0         3.9      -0.015
  WS02006239           JUNCTION      0.00   430.15     0  03:43           0         3.9      -0.054
  WS02006240           JUNCTION      0.00   427.27     0  03:48           0         3.9      -0.005
  WS02006242           JUNCTION      0.00   426.59     0  03:36           0         3.9       0.028
  WS02006243           JUNCTION      0.00   427.05     0  03:39           0         3.9      -0.020
  WS02006245           JUNCTION      0.00   428.20     0  03:39           0         3.9       0.096
  WS02006247           JUNCTION      0.00   429.18     0  03:39           0         3.9       0.011
  WS02006248           JUNCTION      0.00   430.44     0  03:39           0         3.9       0.024
  WS02006249           JUNCTION      0.00   430.92     0  03:39           0        4.42       0.061
  WS02006251           JUNCTION      0.08   409.00     0  01:24     0.00222        4.42      -0.019
  WS02006252           JUNCTION      0.00   400.00     0  01:21           0        4.41      -0.023
  WS02006256           JUNCTION      0.00   300.00     0  01:16           0         2.4      -0.205
  WSF200               JUNCTION      0.00   536.75     0  02:54           0        5.83       0.005
  YS02001580           JUNCTION      0.00    67.26     0  01:22           0     0.00436       1.231
  YS02001583           JUNCTION      0.00   102.24     0  01:22           0      0.0162      -3.441
  YS02001586           JUNCTION   5219.07  5219.07     0  02:37        8.92        8.93       0.015
  YS02001590           JUNCTION      0.00   318.46     0  01:37           0        2.64      -0.032
  YS02001593           JUNCTION      0.00   320.10     0  01:37           0        2.64       0.006
  YS02001596           JUNCTION      0.00   318.05     0  01:51           0        2.64      -0.007
  YS02001600           JUNCTION      0.00   318.04     0  02:02           0        2.64       0.006
  YS02001601           JUNCTION   7924.18  8241.68     0  02:37        11.6        14.3       0.007
  YS02001602           JUNCTION      0.00   510.65     0  01:21           0        3.65       0.012
  YS02001605           JUNCTION      0.00   510.79     0  01:21           0        3.27       0.019
  YS02001607           JUNCTION      0.00   510.53     0  01:21           0        3.27       0.059
  YS02001610           JUNCTION      0.00   954.95     0  02:30           0        5.41       0.047
  YS02001613           JUNCTION      0.00   618.75     0  02:16           0        3.63       0.042
  YS02001616           JUNCTION      0.00   619.22     0  02:45           0        3.63       0.006
  YS02001619           JUNCTION   8981.20  8981.20     0  02:37        14.4        15.9       0.000
  YS02001622           JUNCTION      0.00  1053.99     0  02:17           0         7.8      -0.002
  YS02001625           JUNCTION      0.00  1505.48     0  02:42           0        9.42       0.126
  YS02001629           JUNCTION      0.00  1138.94     0  02:40           0        5.57      -0.012
  YS02001633           JUNCTION   5927.39  5927.39     0  02:37        8.63        11.4       0.028
  YS02001641           JUNCTION      0.00  1226.25     0  01:27           0        6.69       0.037
  YS02001644           JUNCTION   5221.40  6973.05     0  02:37        7.51        15.9       0.020
  YS02001647           JUNCTION      0.00  1531.16     0  01:27           0        7.35       0.002
  YS02001649           JUNCTION      0.00  3236.93     0  02:39           0        12.5      -0.001
  YS02001652           JUNCTION      0.00  2429.33     0  02:40           0        6.16      -0.027
  YS02001655           JUNCTION      0.15  2731.44     0  02:38     0.00443        6.36       0.028
  YS02001658           JUNCTION      0.00  2783.82     0  02:40           0        6.39      -0.032
  YS02001661           JUNCTION      0.00  2783.49     0  02:39           0        6.39      -0.059
  YS02001664           JUNCTION   5064.97  5064.97     0  02:36        7.04        7.04       0.005
  YS02001745           JUNCTION   3066.39  3066.39     0  02:36        4.12        4.12       0.032
  YS02001748           JUNCTION      0.04  3063.76     0  02:36      0.0013        4.12      -0.084
  YS02001751           JUNCTION      0.01  2353.32     0  02:38    0.000317        4.02       0.024
  YS02001754           JUNCTION      0.26  2353.58     0  02:38     0.00749        4.03      -0.040
  YS02001757           JUNCTION      0.00  3760.87     0  02:38           0        18.9       0.011
  YS02001759           JUNCTION   4276.64  4276.64     0  02:36        5.74        7.94      -0.008
  YS02001762           JUNCTION      0.00   722.23     0  02:39           0        3.06      -0.006
  YS02001765           JUNCTION      0.00   722.24     0  02:39           0        3.06      -0.005
  YS02001767           JUNCTION      0.54   722.77     0  02:39      0.0154        3.06       0.001
  YS02001770           JUNCTION   6156.85  6879.02     0  02:36        8.61        9.51      -0.005
  YS02001774           JUNCTION      0.00   852.09     0  02:26           0        2.56       0.027
  YS02001779           JUNCTION      0.01   851.77     0  02:40    0.000144        2.51      -0.005
  YS02001783           JUNCTION      0.00  1321.90     0  02:39           0        8.29       0.004
  YS02001784           JUNCTION      1.06  1322.64     0  02:32      0.0305        8.32       0.007
  YS02001786           JUNCTION      0.06  1322.86     0  02:32     0.00162        8.32       0.008
  YS02001788           JUNCTION      0.07  1323.08     0  02:32     0.00204        8.32       0.003
  YS02001790           JUNCTION      0.15  1345.58     0  02:31     0.00446        8.32       0.041
  YS02001791           JUNCTION      0.00  1421.67     0  02:31           0        8.32      -0.057
  YS02001793           JUNCTION      0.00  1460.60     0  02:31           0        8.32       0.001
  YS02001882           JUNCTION      0.00    38.37     0  01:17           0      0.0148       5.103
  YS02001884           JUNCTION      0.00    73.97     0  01:14           0      0.0515       4.786
  YS02001887           JUNCTION   4477.82  4477.82     0  02:36        5.86        5.89       0.076
  YS02001890           JUNCTION      0.00  2052.03     0  02:38           0        5.08       0.103
  YS02001895           JUNCTION      0.00   519.17     0  02:34           0        2.84       0.078
  YS02001898           JUNCTION      0.00   519.32     0  02:15           0        2.84      -0.007
  YS02001901           JUNCTION      0.00   518.25     0  02:16           0        2.84       0.119
  YS02001904           JUNCTION      0.00   518.75     0  02:15           0        2.85       0.102
  YS02001907           JUNCTION      0.00  4671.11     0  02:34           0        13.7       0.136
  YS02001910           JUNCTION      0.00  1993.16     0  02:27           0        8.41       0.085
  YS02001915           JUNCTION   5660.99  6882.68     0  02:37        8.21        11.9       0.013
  YS02001918           JUNCTION      0.00  1681.92     0  02:40           0        4.04       0.007
  YS02001920           JUNCTION      2.87  1681.96     0  02:39      0.0827        4.04       0.028
  YS02001923           JUNCTION      0.04  1679.19     0  02:40     0.00109        3.96       0.009
  YS02001926           JUNCTION      0.05  1678.93     0  02:40      0.0015        3.96       0.000
  YS02001929           JUNCTION   2877.55  2877.55     0  02:37        4.32        4.32       0.003
  YS02006553           JUNCTION      0.00  2160.57     0  02:39           0        5.42       0.223
  YS02006556           JUNCTION      0.00  2160.38     0  02:33           0        5.43       0.164
  YS02006558           JUNCTION   6272.86  6272.86     0  02:36        8.64        11.6       0.027
  YS02006561           JUNCTION      0.00  1321.90     0  02:32           0        8.29       0.003
  YS02163301           JUNCTION      0.00  1138.86     0  02:33           0        5.58       0.021
  YS02163601           JUNCTION      0.11  1225.72     0  01:27     0.00317        6.68       0.071
  YS02164001           JUNCTION      0.00  1225.42     0  01:27           0        6.68       0.022
  CC-1                 OUTFALL       0.00   683.00     0  01:27           0           7       0.000
  CC-2                 OUTFALL       0.00   683.00     0  01:34           0         6.7       0.000
  JK-1                 OUTFALL       0.00  1000.00     0  01:17           0        5.89       0.000
  JK-2                 OUTFALL       0.00     0.00     0  00:00           0           0       0.000 ltr
  WSC                  OUTFALL       0.00   555.20     0  02:58           0        6.35       0.000
  CC-storage           STORAGE       0.00  2657.79     0  01:46           0        20.1      -0.110
  JK-storage           STORAGE       0.00  1543.82     0  02:31           0        8.48       0.071
  
  
  **********************
  Node Surcharge Summary
  **********************
  
  Surcharging occurs when water rises above the top of the highest conduit.
  ---------------------------------------------------------------------
                                               Max. Height   Min. Depth
                                   Hours       Above Crown    Below Rim
  Node                 Type      Surcharged         Meters       Meters
  ---------------------------------------------------------------------
  WS02006109           JUNCTION        2.93          0.281        1.539
  WS02006110           JUNCTION        1.95          0.187        1.663
  WS02006111           JUNCTION        0.01          0.087        1.783
  WS02006112           JUNCTION        1.96          1.680        0.000
  WS02006113           JUNCTION        0.01          0.600        1.330
  WS02006115           JUNCTION        0.01          0.642        1.608
  WS02006116           JUNCTION        0.01          0.000        2.290
  WS02006228           JUNCTION        2.92          0.269        1.931
  WS02006229           JUNCTION        2.93          0.328        2.122
  WS02006230           JUNCTION        1.95          0.194        1.376
  WS02006231           JUNCTION        2.03          0.407        1.123
  WS02006232           JUNCTION        2.97          0.604        0.876
  WS02006234           JUNCTION        2.31          0.735        0.505
  WS02006235           JUNCTION        2.86          0.837        0.453
  WS02006238           JUNCTION        2.93          1.025        0.405
  WS02006239           JUNCTION        2.87          1.290        0.000
  WS02006240           JUNCTION        2.91          1.390        0.000
  WS02006242           JUNCTION        2.93          0.820        0.000
  WS02006243           JUNCTION        2.91          0.770        0.000
  WS02006245           JUNCTION        2.91          0.850        0.000
  WS02006247           JUNCTION        2.91          0.760        0.000
  WS02006248           JUNCTION        2.90          0.380        0.000
  WS02006249           JUNCTION        2.90          0.390        0.000
  WS02006251           JUNCTION        2.10          0.644        0.536
  WS02006252           JUNCTION        2.95          1.100        0.000
  WS02006256           JUNCTION        3.61          2.050        0.000
  YS02001580           JUNCTION        1.84          0.396        0.054
  YS02001583           JUNCTION        1.84          0.367        0.133
  YS02001586           JUNCTION        1.95          0.510        0.000
  YS02001590           JUNCTION        2.03          0.750        0.000
  YS02001593           JUNCTION        2.03          0.681        0.159
  YS02001596           JUNCTION        2.13          0.928        0.142
  YS02001600           JUNCTION        2.24          1.190        0.000
  YS02001601           JUNCTION        2.47          1.440        0.000
  YS02001602           JUNCTION        2.41          1.270        0.000
  YS02001605           JUNCTION        2.38          1.180        0.000
  YS02001607           JUNCTION        2.04          0.665        0.015
  YS02001610           JUNCTION        2.06          0.680        0.000
  YS02001613           JUNCTION        2.04          0.681        0.019
  YS02001616           JUNCTION        2.00          0.610        0.000
  YS02001619           JUNCTION        1.98          0.610        0.000
  YS02001622           JUNCTION        1.99          0.590        0.030
  YS02001625           JUNCTION        2.16          0.780        0.000
  YS02001629           JUNCTION        1.93          0.470        0.000
  YS02001633           JUNCTION        2.22          1.060        0.000
  YS02001641           JUNCTION        2.19          1.100        0.000
  YS02001644           JUNCTION        2.17          0.920        0.000
  YS02001647           JUNCTION        1.96          0.787        0.113
  YS02001649           JUNCTION        2.10          1.050        0.000
  YS02001652           JUNCTION        1.92          1.123        0.007
  YS02001655           JUNCTION        1.75          1.200        0.000
  YS02001658           JUNCTION        1.37          1.300        0.000
  YS02001661           JUNCTION        0.74          1.374        0.016
  YS02001664           JUNCTION        0.41          1.310        0.000
  YS02001745           JUNCTION        0.45          1.350        0.000
  YS02001748           JUNCTION        1.24          1.190        0.000
  YS02001751           JUNCTION        1.62          1.200        0.000
  YS02001754           JUNCTION        1.85          1.129        0.021
  YS02001757           JUNCTION        2.18          1.210        0.000
  YS02001759           JUNCTION        2.09          1.210        0.000
  YS02001762           JUNCTION        2.06          1.150        0.000
  YS02001765           JUNCTION        2.02          1.086        0.014
  YS02001767           JUNCTION        1.99          1.016        0.014
  YS02001770           JUNCTION        1.97          0.920        0.000
  YS02001774           JUNCTION        2.04          1.002        0.048
  YS02001779           JUNCTION        1.83          0.680        0.000
  YS02001783           JUNCTION        1.70          0.770        0.830
  YS02001784           JUNCTION        1.68          0.566        0.924
  YS02001786           JUNCTION        1.54          0.196        1.234
  YS02001790           JUNCTION        0.01          0.001        1.156
  YS02001882           JUNCTION        1.64          0.830        0.000
  YS02001884           JUNCTION        1.66          0.870        0.000
  YS02001887           JUNCTION        1.69          0.950        0.000
  YS02001890           JUNCTION        1.71          0.760        0.000
  YS02001895           JUNCTION        1.62          0.580        0.170
  YS02001898           JUNCTION        1.62          0.537        0.203
  YS02001901           JUNCTION        1.68          0.678        0.192
  YS02001904           JUNCTION        1.67          0.645        0.205
  YS02001907           JUNCTION        1.88          0.950        0.000
  YS02001910           JUNCTION        1.74          1.014        0.086
  YS02001915           JUNCTION        1.64          1.000        0.000
  YS02001918           JUNCTION        1.53          0.810        0.000
  YS02001920           JUNCTION        1.55          1.104        0.036
  YS02001923           JUNCTION        0.80          0.795        0.025
  YS02001926           JUNCTION        0.86          0.900        0.000
  YS02001929           JUNCTION        0.60          0.780        0.000
  YS02006553           JUNCTION        1.90          1.176        0.014
  YS02006556           JUNCTION        1.82          1.348        0.002
  YS02006558           JUNCTION        1.81          1.400        0.000
  YS02006561           JUNCTION        1.49          0.472        0.678
  YS02163301           JUNCTION        2.19          1.027        0.003
  YS02163601           JUNCTION        2.26          1.080        0.000
  YS02164001           JUNCTION        2.19          1.100        0.000
  
  
  *********************
  Node Flooding Summary
  *********************
  
  Flooding refers to all water that overflows a node, whether it ponds or not.
  --------------------------------------------------------------------------
                                                             Total   Maximum
                                 Maximum   Time of Max       Flood    Ponded
                        Hours       Rate    Occurrence      Volume     Depth
  Node                 Flooded       LPS   days hr:min    10^6 ltr    Meters
  --------------------------------------------------------------------------
  WS02006112              0.01   1547.89      0  00:00       0.047     0.000
  WS02006239              0.01      2.57      0  01:24       0.000     0.000
  WS02006240              0.01      3.59      0  01:24       0.000     0.000
  WS02006242              0.01      4.77      0  03:45       0.000     0.000
  WS02006243              0.01      3.76      0  03:45       0.000     0.000
  WS02006245              0.01      0.47      0  03:38       0.000     0.000
  WS02006247              0.01      0.48      0  03:38       0.000     0.000
  WS02006248              0.01     23.19      0  01:23       0.000     0.000
  WS02006249              2.05    102.83      0  01:24       0.512     0.000
  WS02006252              0.01      0.91      0  01:21       0.000     0.000
  WS02006256              2.22    283.16      0  01:16       0.829     0.000
  YS02001586              1.66   4899.01      0  02:37       6.279     0.000
  YS02001590              0.01      0.30      0  01:53       0.000     0.000
  YS02001600              0.01      0.24      0  01:37       0.000     0.000
  YS02001601              1.88   7842.77      0  02:37      10.627     0.000
  YS02001602              1.78     62.87      0  01:37       0.385     0.000
  YS02001605              0.01      0.21      0  02:05       0.000     0.000
  YS02001610              1.71    954.42      0  02:16       3.927     0.000
  YS02001616              0.10      2.60      0  02:45       0.000     0.000
  YS02001619              0.73   7307.95      0  02:37       5.924     0.000
  YS02001625              1.69   1505.26      0  02:42       6.638     0.000
  YS02001629              0.76    686.80      0  02:40       1.187     0.000
  YS02001633              0.35   3883.66      0  02:37       1.914     0.000
  YS02001641              0.01      0.66      0  01:37       0.000     0.000
  YS02001644              1.26   6972.84      0  02:37      10.213     0.000
  YS02001649              0.42   2389.99      0  02:40       2.374     0.000
  YS02001655              0.21    303.22      0  02:33       0.204     0.000
  YS02001658              0.17     52.17      0  02:40       0.031     0.000
  YS02001664              0.17   2280.40      0  02:36       0.659     0.000
  YS02001745              0.01      2.63      0  02:36       0.000     0.000
  YS02001748              0.08    710.30      0  02:36       0.107     0.000
  YS02001751              0.01      1.05      0  02:30       0.000     0.000
  YS02001757              0.18    783.60      0  02:38       0.327     0.000
  YS02001759              0.19   2145.46      0  02:36       0.660     0.000
  YS02001762              0.03      2.84      0  02:30       0.000     0.000
  YS02001770              0.60   6026.79      0  02:36       4.786     0.000
  YS02001779              1.13    851.48      0  02:40       2.492     0.000
  YS02001882              0.01      0.48      0  02:39       0.000     0.000
  YS02001884              0.01      0.78      0  02:30       0.000     0.000
  YS02001887              0.20   2421.88      0  02:36       0.767     0.000
  YS02001890              0.89   1537.67      0  02:34       2.237     0.000
  YS02001907              1.47   4671.04      0  02:34      10.758     0.000
  YS02001915              0.52   4889.71      0  02:37       3.491     0.000
  YS02001918              0.28    460.13      0  02:40       0.353     0.000
  YS02001926              0.01      0.54      0  02:30       0.000     0.000
  YS02001929              0.17   1198.74      0  02:37       0.361     0.000
  YS02006558              0.16   2790.40      0  02:36       0.787     0.000
  YS02163601              0.01      1.22      0  01:37       0.000     0.000
  YS02164001              0.01      1.32      0  01:37       0.000     0.000
  CC-storage              0.43    410.38      0  02:34       0.340     0.000
  
  
  **********************
  Storage Volume Summary
  **********************
  
  --------------------------------------------------------------------------------------------------
                         Average     Avg  Evap Exfil       Maximum     Max    Time of Max    Maximum
                          Volume    Pcnt  Pcnt  Pcnt        Volume    Pcnt     Occurrence    Outflow
  Storage Unit           1000 m3    Full  Loss  Loss       1000 m3    Full    days hr:min        LPS
  --------------------------------------------------------------------------------------------------
  CC-storage               3.572      56     0     0         6.410     100       0  02:34    1766.00
  JK-storage               0.147      50     0     0         0.213      73       0  02:15    1300.00
  
  
  ***********************
  Outfall Loading Summary
  ***********************
  
  -----------------------------------------------------------
                         Flow       Avg       Max       Total
                         Freq      Flow      Flow      Volume
  Outfall Node           Pcnt       LPS       LPS    10^6 ltr
  -----------------------------------------------------------
  CC-1                  51.52    683.00    683.00       6.998
  CC-2                  49.15    683.00    683.00       6.705
  JK-1                  33.06   1000.00   1000.00       5.887
  JK-2                   0.00      0.00      0.00       0.000
  WSC                   99.99    297.28    555.20       6.354
  -----------------------------------------------------------
  System                46.74   2663.28    555.20      25.944
  
  
  ********************
  Link Flow Summary
  ********************
  
  -----------------------------------------------------------------------------
                                 Maximum  Time of Max   Maximum    Max/    Max/
                                  |Flow|   Occurrence   |Veloc|    Full    Full
  Link                 Type          LPS  days hr:min     m/sec    Flow   Depth
  -----------------------------------------------------------------------------
  1                    CONDUIT    555.20     0  02:58      2.83    0.19    0.30
  WS02003060WS02003069 CONDUIT    553.33     0  02:55      1.64    0.22    0.34
  WS02003066WSF200     CONDUIT    536.75     0  02:54      2.85    0.09    0.22
  WS02003067WS02003066 CONDUIT    536.73     0  02:54      1.21    0.17    0.42
  WS02003069WS02003072 CONDUIT    553.51     0  02:56      1.37    0.27    0.39
  WS02003072WS02003073 CONDUIT    553.44     0  02:57      1.44    1.20    0.37
  WS02004401WS02004402 CONDUIT   1171.33     0  00:01      2.51    1.41    0.86
  WS02004402WS02004403 CONDUIT    884.75     0  00:01      2.16    1.27    0.88
  WS02004403WS02004404 CONDUIT    832.43     0  00:01      1.96    0.60    0.93
  WS02004404WS02004405 CONDUIT    776.45     0  00:01      2.26    7.61    0.96
  WS02004405WS02004406 CONDUIT    711.76     0  00:02      2.15    1.40    0.96
  WS02004406WS02004407 CONDUIT    537.28     0  02:53      1.04    0.24    0.63
  WS02004407WS02004409 CONDUIT    537.14     0  02:53      1.95    0.19    0.48
  WS02004409WS02004410 CONDUIT    536.97     0  02:53      1.31    0.69    0.67
  WS02004410WS02004411 CONDUIT    536.89     0  02:53      1.19    0.73    0.69
  WS02004411WS02004412 CONDUIT    536.84     0  02:54      1.07    0.76    0.69
  WS02004412WS02004413 CONDUIT    536.79     0  02:06      1.10    0.36    0.78
  WS02004413WS02003067 CONDUIT    536.69     0  02:54      1.11    0.23    0.59
  WS02006109WS02006110 CONDUIT   1306.78     0  00:00      3.14    2.51    1.00
  WS02006110WS02006113 CONDUIT    565.00     0  01:43      1.36    0.51    1.00
  WS02006111WS02006112 CONDUIT   2307.30     0  00:00      9.18    1.10    0.91
  WS02006112WS02006115 CONDUIT    899.27     0  00:00      1.16    0.53    1.00
  WS02006113WS02006111 CONDUIT   1176.04     0  00:00      2.47    1.41    1.00
  WS02006115WS02006116 CONDUIT   1098.16     0  00:01      1.72    1.41    1.00
  WS02006116WS02004401 CONDUIT   1677.78     0  00:00      2.92    2.31    0.84
  WS02006228WS02006109 CONDUIT    550.43     0  01:43      1.40    2.40    1.00
  WS02006229WS02006228 CONDUIT    550.02     0  01:43      1.24    1.82    1.00
  WS02006230WS02006229 CONDUIT    550.43     0  01:43      1.43   12.25    1.00
  WS02006231WS02006230 CONDUIT    587.41     0  03:37      1.59    8.91    1.00
  WS02006232WS02006231 CONDUIT    575.33     0  03:33      1.50    1.21    1.00
  WS02006234WS02006232 CONDUIT    574.50     0  03:33      1.49    1.16    1.00
  WS02006235WS02006234 CONDUIT    569.82     0  03:33      1.48    6.01    1.00
  WS02006238WS02006235 CONDUIT    459.99     0  03:45      1.20    1.03    1.00
  WS02006239WS02006238 CONDUIT    431.54     0  03:43      1.12    1.38    1.00
  WS02006240WS02006239 CONDUIT    430.15     0  03:43      1.12    1.35    1.00
  WS02006242WS02006240 CONDUIT    427.27     0  03:48      1.11    1.70    1.00
  WS02006243WS02006242 CONDUIT    426.59     0  03:36      1.14    0.91    1.00
  WS02006245WS02006243 CONDUIT    427.05     0  03:39      1.15    1.26    1.00
  WS02006247WS02006245 CONDUIT    428.20     0  03:39      1.11    3.40    1.00
  WS02006248WS02006247 CONDUIT    429.18     0  03:39      1.16    0.93    1.00
  WS02006249WS02006248 CONDUIT    430.44     0  03:39      1.24    2.36    1.00
  WS02006251WS02006249 CONDUIT    430.92     0  03:39      1.52    1.24    1.00
  WS02006252WS02006251 CONDUIT    408.92     0  01:24     18.58    1.50    1.00
  WS02006256WS02006235 CONDUIT    251.10     0  01:17      3.55    2.66    1.00
  WSF200WS02003060     CONDUIT    536.86     0  02:55      2.06    0.12    0.28
  YS02001580YS02001583 CONDUIT     67.26     0  01:22      0.51    0.26    1.00
  YS02001583YS02001586 CONDUIT    102.24     0  01:22      0.45    0.15    1.00
  YS02001586YS02001590 CONDUIT    318.46     0  01:37      1.27    0.56    1.00
  YS02001590YS02001593 CONDUIT    320.10     0  01:37      1.13    2.01    1.00
  YS02001593YS02001596 CONDUIT    318.05     0  01:51      1.78    0.50    1.00
  YS02001596YS02001600 CONDUIT    318.04     0  02:02      1.33    0.62    1.00
  YS02001600YS02001601 CONDUIT    318.10     0  02:02      1.13    0.55    1.00
  YS02001601YS02001602 CONDUIT    510.65     0  01:21      1.81    1.84    1.00
  YS02001602YS02001605 CONDUIT    510.79     0  01:21      1.81   10.81    1.00
  YS02001605YS02001607 CONDUIT    510.53     0  01:21      1.81    2.80    1.00
  YS02001607YS02001610 CONDUIT    512.98     0  01:21      0.68    0.49    1.00
  YS02001610YS02001613 CONDUIT    618.68     0  02:45      0.79    0.71    1.00
  YS02001613YS02001616 CONDUIT    618.75     0  02:16      0.79    0.53    1.00
  YS02001616YS02001619 CONDUIT    619.22     0  02:45      0.79    1.08    1.00
  YS02001619YS02001622 CONDUIT   1053.99     0  02:17      1.54    1.55    1.00
  YS02001622YS02001625 CONDUIT   1053.70     0  02:15      1.34    0.56    1.00
  YS02001625YS02001629 CONDUIT    884.67     0  01:22      1.14    0.42    1.00
  YS02001629YS02163301 CONDUIT   1138.94     0  02:40      1.45    1.40    1.00
  YS02001633YS02163601 CONDUIT   1225.61     0  01:27      1.56    1.29    1.00
  YS02001641YS02001644 CONDUIT   1225.25     0  01:26      1.56    3.96    1.00
  YS02001644YS02001647 CONDUIT   1531.16     0  01:27      2.04    0.90    1.00
  YS02001647YS02001649 CONDUIT   1538.40     0  01:28      2.26    0.81    1.00
  YS02001649YS02001757 CONDUIT   1755.08     0  01:29      2.32    1.07    1.00
  YS02001652YS02001649 CONDUIT   2429.27     0  02:33      3.09    1.20    1.00
  YS02001655YS02001652 CONDUIT   2429.33     0  02:40      3.09    1.18    1.00
  YS02001658YS02001655 CONDUIT   2731.29     0  02:38      3.48    1.16    1.00
  YS02001661YS02001658 CONDUIT   2783.82     0  02:40      3.54    1.09    1.00
  YS02001664YS02001661 CONDUIT   2783.49     0  02:39      3.54    0.87    1.00
  YS02001745YS02001748 CONDUIT   3063.72     0  02:36      3.90    1.18    1.00
  YS02001748YS02001751 CONDUIT   2353.31     0  02:38      3.00    1.19    1.00
  YS02001751YS02001754 CONDUIT   2353.32     0  02:38      3.00    1.13    1.00
  YS02001754YS02001757 CONDUIT   2353.58     0  02:38      3.00    0.95    1.00
  YS02001757CaochengTiaoxuchi CONDUIT   2657.79     0  01:46      3.38    1.15    1.00
  YS02001759YS02001757 CONDUIT   1425.20     0  02:40      1.81    1.01    1.00
  YS02001762YS02001759 CONDUIT    722.23     0  02:39      0.92    0.83    1.00
  YS02001765YS02001762 CONDUIT    722.24     0  02:39      0.92    0.68    1.00
  YS02001767YS02001765 CONDUIT    722.23     0  02:39      0.92    0.91    1.00
  YS02001770YS02001767 CONDUIT    722.65     0  02:39      0.92    2.86    1.00
  YS02001774YS02001770 CONDUIT    852.09     0  02:26      1.08    0.54    1.00
  YS02001779YS02001774 CONDUIT    851.77     0  02:40      1.08    0.43    1.00
  YS02001783YS02001784 CONDUIT   1321.58     0  02:32      2.63    1.82    1.00
  YS02001784YS02001785 CONDUIT   1322.80     0  02:32      2.63    3.08    1.00
  YS02001786YS02001788 CONDUIT   1323.01     0  02:32      2.74    2.55    0.93
  YS02001788YS02001790 CONDUIT   1345.43     0  02:31      2.92    0.99    0.93
  YS02001790YS02001791 CONDUIT   1421.67     0  02:31      3.55    1.55    0.77
  YS02001791YS02001793 CONDUIT   1460.60     0  02:31      6.78    0.63    0.48
  YS02001793JiankangQianchi CONDUIT   1543.82     0  02:31      2.98    0.12    0.66
  YS02001882YS02001884 CONDUIT     38.37     0  01:17      0.31    0.04    1.00
  YS02001884YS02001887 CONDUIT     73.97     0  01:14      0.25    0.10    1.00
  YS02001887YS02001890 CONDUIT   2052.03     0  02:38      2.61    3.51    1.00
  YS02001890YS02001895 CONDUIT    519.17     0  02:34      0.66    0.24    1.00
  YS02001895YS02001898 CONDUIT    519.32     0  02:15      0.66    0.90    1.00
  YS02001898YS02001901 CONDUIT    518.25     0  02:16      0.66    0.33    1.00
  YS02001901YS02001904 CONDUIT    518.75     0  02:15      0.66    0.80    1.00
  YS02001904YS02001907 CONDUIT    520.61     0  02:05      0.66    0.18    1.00
  YS02001907YS02006553 CONDUIT   2160.53     0  02:39      2.40    2.54    1.00
  YS02001910YS02001907 CONDUIT   1993.01     0  02:41      2.54    1.12    1.00
  YS02001915YS02001910 CONDUIT   1993.16     0  02:27      2.54    0.99    1.00
  YS02001918YS02001915 CONDUIT   1221.69     0  02:43      1.56    0.67    1.00
  YS02001920YS02001918 CONDUIT   1681.92     0  02:40      2.14    1.63    1.00
  YS02001923YS02001920 CONDUIT   1679.09     0  02:39      2.14    0.75    1.00
  YS02001926YS02001923 CONDUIT   1679.16     0  02:40      2.14    2.40    1.00
  YS02001929YS02001926 CONDUIT   1678.87     0  02:40      2.14    0.80    1.00
  YS02006553YS02006556 CONDUIT   2160.57     0  02:39      2.75    1.85    1.00
  YS02006556YS02006558 CONDUIT   2160.38     0  02:33      2.75    1.71    1.00
  YS02006558YS02006561 CONDUIT   1321.90     0  02:32      4.68    2.92    1.00
  YS02006561YS02001783 CONDUIT   1321.90     0  02:39      2.63    0.68    1.00
  YS02163301YS02001633 CONDUIT   1138.86     0  02:33      1.45    1.07    1.00
  YS02163601YS02164001 CONDUIT   1225.42     0  01:27      1.56    1.09    1.00
  YS02164001YS02001641 CONDUIT   1226.25     0  01:27      1.56    1.67    1.00
  CC-R1                PUMP       683.00     0  01:27              1.00
  CC-R2                PUMP       683.00     0  01:34              1.00
  CC-S1                PUMP       200.00     0  00:34              1.00
  CC-S2                PUMP       200.00     0  01:21              1.00
  JK-R1                PUMP      1000.00     0  01:17              1.00
  JK-R2                PUMP         0.00     0  00:00              0.00
  JK-S                 PUMP       300.00     0  01:16              1.00
  
  
  ***************************
  Flow Classification Summary
  ***************************
  
  -------------------------------------------------------------------------------------
                      Adjusted    ---------- Fraction of Time in Flow Class ---------- 
                       /Actual         Up    Down  Sub   Sup   Up    Down  Norm  Inlet 
  Conduit               Length    Dry  Dry   Dry   Crit  Crit  Crit  Crit  Ltd   Ctrl  
  -------------------------------------------------------------------------------------
  1                       1.00   0.00  0.00  0.00  0.00  1.00  0.00  0.00  0.64  0.00
  WS02003060WS02003069    1.00   0.00  0.00  0.00  0.98  0.02  0.00  0.00  0.61  0.00
  WS02003066WSF200        1.00   0.02  0.00  0.00  0.00  0.98  0.00  0.00  0.71  0.00
  WS02003067WS02003066    1.00   0.01  0.00  0.00  0.99  0.00  0.00  0.00  0.00  0.00
  WS02003069WS02003072    1.00   0.00  0.00  0.00  1.00  0.00  0.00  0.00  0.62  0.00
  WS02003072WS02003073    1.00   0.00  0.00  0.00  0.00  0.00  0.00  1.00  0.00  0.00
  WS02004401WS02004402    1.00   0.00  0.00  0.00  1.00  0.00  0.00  0.00  0.00  0.00
  WS02004402WS02004403    1.00   0.00  0.00  0.00  1.00  0.00  0.00  0.00  0.00  0.00
  WS02004403WS02004404    1.00   0.00  0.00  0.00  1.00  0.00  0.00  0.00  0.00  0.00
  WS02004404WS02004405    1.00   0.00  0.00  0.00  1.00  0.00  0.00  0.00  0.00  0.00
  WS02004405WS02004406    1.00   0.00  0.00  0.00  1.00  0.00  0.00  0.00  0.00  0.00
  WS02004406WS02004407    1.00   0.00  0.00  0.00  1.00  0.00  0.00  0.00  0.00  0.00
  WS02004407WS02004409    1.00   0.00  0.00  0.00  0.99  0.01  0.00  0.00  0.99  0.00
  WS02004409WS02004410    1.00   0.00  0.00  0.00  1.00  0.00  0.00  0.00  0.00  0.00
  WS02004410WS02004411    1.00   0.00  0.00  0.00  1.00  0.00  0.00  0.00  0.00  0.00
  WS02004411WS02004412    1.00   0.00  0.00  0.00  1.00  0.00  0.00  0.00  0.00  0.00
  WS02004412WS02004413    1.00   0.01  0.00  0.00  0.99  0.00  0.00  0.00  0.00  0.00
  WS02004413WS02003067    1.00   0.01  0.00  0.00  0.00  0.00  0.99  0.00  0.00  0.00
  WS02006109WS02006110    1.00   0.00  0.00  0.00  1.00  0.00  0.00  0.00  0.00  0.00
  WS02006110WS02006113    1.00   0.00  0.00  0.00  1.00  0.00  0.00  0.00  0.00  0.00
  WS02006111WS02006112    1.00   0.00  0.00  0.00  1.00  0.00  0.00  0.00  1.00  0.00
  WS02006112WS02006115    1.00   0.00  0.00  0.00  1.00  0.00  0.00  0.00  0.00  0.00
  WS02006113WS02006111    1.00   0.00  0.00  0.00  0.00  1.00  0.00  0.00  0.12  0.00
  WS02006115WS02006116    1.00   0.00  0.00  0.00  1.00  0.00  0.00  0.00  0.00  0.00
  WS02006116WS02004401    1.00   0.00  0.00  0.00  1.00  0.00  0.00  0.00  0.00  0.00
  WS02006228WS02006109    1.00   0.00  0.00  0.00  1.00  0.00  0.00  0.00  0.00  0.00
  WS02006229WS02006228    1.00   0.00  0.00  0.00  1.00  0.00  0.00  0.00  0.00  0.00
  WS02006230WS02006229    1.00   0.00  0.00  0.00  1.00  0.00  0.00  0.00  0.01  0.00
  WS02006231WS02006230    1.00   0.00  0.00  0.00  0.56  0.00  0.44  0.00  0.00  0.00
  WS02006232WS02006231    1.00   0.00  0.00  0.00  0.98  0.00  0.02  0.00  0.00  0.00
  WS02006234WS02006232    1.00   0.00  0.00  0.00  1.00  0.00  0.00  0.00  0.48  0.00
  WS02006235WS02006234    1.00   0.05  0.00  0.00  0.69  0.00  0.26  0.00  0.00  0.00
  WS02006238WS02006235    1.00   0.01  0.00  0.00  0.99  0.00  0.00  0.00  0.01  0.00
  WS02006239WS02006238    1.00   0.05  0.00  0.00  0.95  0.00  0.00  0.01  0.44  0.00
  WS02006240WS02006239    1.00   0.05  0.00  0.00  0.67  0.00  0.00  0.28  0.01  0.00
  WS02006242WS02006240    1.00   0.03  0.02  0.00  0.93  0.00  0.02  0.00  0.00  0.00
  WS02006243WS02006242    1.00   0.02  0.00  0.00  0.94  0.00  0.00  0.04  0.50  0.00
  WS02006245WS02006243    1.00   0.02  0.00  0.00  0.73  0.00  0.00  0.25  0.00  0.00
  WS02006247WS02006245    1.00   0.01  0.00  0.00  0.94  0.00  0.00  0.05  0.00  0.00
  WS02006248WS02006247    1.00   0.01  0.00  0.00  0.95  0.00  0.00  0.04  0.12  0.00
  WS02006249WS02006248    1.00   0.00  0.01  0.00  0.68  0.00  0.31  0.00  0.00  0.00
  WS02006251WS02006249    1.00   0.00  0.00  0.00  1.00  0.00  0.00  0.00  0.57  0.00
  WS02006252WS02006251    1.00   0.04  0.26  0.00  0.39  0.00  0.31  0.00  0.00  0.00
  WS02006256WS02006235    1.00   0.01  0.00  0.00  0.99  0.00  0.00  0.00  0.01  0.00
  WSF200WS02003060        1.00   0.00  0.02  0.00  0.38  0.60  0.00  0.00  0.58  0.00
  YS02001580YS02001583    1.00   0.19  0.29  0.00  0.52  0.00  0.00  0.00  0.58  0.00
  YS02001583YS02001586    1.00   0.18  0.22  0.00  0.58  0.00  0.01  0.00  0.58  0.00
  YS02001586YS02001590    1.00   0.07  0.00  0.00  0.76  0.02  0.00  0.15  0.31  0.00
  YS02001590YS02001593    1.00   0.07  0.00  0.00  0.44  0.00  0.49  0.00  0.00  0.00
  YS02001593YS02001596    1.00   0.07  0.00  0.00  0.47  0.01  0.00  0.45  0.01  0.00
  YS02001596YS02001600    1.00   0.07  0.00  0.00  0.56  0.01  0.00  0.36  0.02  0.00
  YS02001600YS02001601    1.00   0.07  0.00  0.00  0.93  0.00  0.00  0.00  0.51  0.00
  YS02001601YS02001602    1.00   0.07  0.00  0.00  0.93  0.00  0.00  0.00  0.00  0.00
  YS02001602YS02001605    1.00   0.07  0.00  0.00  0.93  0.00  0.00  0.00  0.00  0.00
  YS02001605YS02001607    1.00   0.07  0.00  0.00  0.93  0.00  0.00  0.00  0.00  0.00
  YS02001607YS02001610    1.00   0.07  0.00  0.00  0.93  0.00  0.00  0.00  0.00  0.00
  YS02001610YS02001613    1.00   0.07  0.00  0.00  0.93  0.00  0.00  0.00  0.00  0.00
  YS02001613YS02001616    1.00   0.07  0.00  0.00  0.93  0.00  0.00  0.00  0.00  0.00
  YS02001616YS02001619    1.00   0.07  0.00  0.00  0.93  0.00  0.00  0.00  0.00  0.00
  YS02001619YS02001622    1.00   0.07  0.00  0.00  0.91  0.03  0.00  0.00  0.23  0.00
  YS02001622YS02001625    1.00   0.07  0.00  0.00  0.93  0.00  0.00  0.00  0.01  0.00
  YS02001625YS02001629    1.00   0.07  0.04  0.00  0.51  0.00  0.39  0.00  0.00  0.00
  YS02001629YS02163301    1.00   0.07  0.00  0.00  0.93  0.00  0.00  0.00  0.00  0.00
  YS02001633YS02163601    1.00   0.00  0.00  0.00  1.00  0.00  0.00  0.00  0.13  0.00
  YS02001641YS02001644    1.00   0.00  0.00  0.00  1.00  0.00  0.00  0.00  0.00  0.00
  YS02001644YS02001647    1.00   0.00  0.08  0.00  0.92  0.00  0.00  0.00  0.00  0.00
  YS02001647YS02001649    1.00   0.00  0.08  0.00  0.75  0.17  0.00  0.00  0.52  0.00
  YS02001649YS02001757    1.00   0.00  0.00  0.00  0.83  0.17  0.00  0.00  0.33  0.00
  YS02001652YS02001649    1.00   0.00  0.00  0.00  0.96  0.04  0.00  0.00  0.63  0.00
  YS02001655YS02001652    1.00   0.00  0.00  0.00  0.53  0.01  0.00  0.46  0.03  0.00
  YS02001658YS02001655    1.00   0.00  0.07  0.00  0.76  0.17  0.00  0.00  0.55  0.00
  YS02001661YS02001658    1.00   0.07  0.00  0.00  0.60  0.33  0.00  0.00  0.57  0.00
  YS02001664YS02001661    1.00   0.07  0.00  0.00  0.77  0.17  0.00  0.00  0.72  0.00
  YS02001745YS02001748    1.00   0.00  0.00  0.00  0.41  0.00  0.00  0.58  0.04  0.00
  YS02001748YS02001751    1.00   0.00  0.00  0.00  0.85  0.15  0.00  0.00  0.66  0.00
  YS02001751YS02001754    1.00   0.00  0.00  0.00  0.50  0.01  0.00  0.48  0.02  0.00
  YS02001754YS02001757    1.00   0.00  0.00  0.00  0.99  0.01  0.00  0.00  0.66  0.00
  YS02001757CaochengTiaoxuchi    1.00   0.00  0.00  0.00  1.00  0.00  0.00  0.00  0.52  0.00
  YS02001759YS02001757    1.00   0.00  0.00  0.00  0.99  0.01  0.00  0.00  0.60  0.00
  YS02001762YS02001759    1.00   0.00  0.00  0.00  1.00  0.00  0.00  0.00  0.01  0.00
  YS02001765YS02001762    1.00   0.00  0.00  0.00  1.00  0.00  0.00  0.00  0.61  0.00
  YS02001767YS02001765    1.00   0.00  0.00  0.00  1.00  0.00  0.00  0.00  0.00  0.00
  YS02001770YS02001767    1.00   0.00  0.00  0.00  1.00  0.00  0.00  0.00  0.00  0.00
  YS02001774YS02001770    1.00   0.00  0.07  0.00  0.86  0.00  0.07  0.00  0.00  0.00
  YS02001779YS02001774    1.00   0.00  0.00  0.00  1.00  0.00  0.00  0.00  0.64  0.00
  YS02001783YS02001784    1.00   0.00  0.09  0.00  0.91  0.00  0.00  0.00  0.52  0.00
  YS02001784YS02001785    1.00   0.00  0.00  0.00  1.00  0.00  0.00  0.00  0.13  0.00
  YS02001786YS02001788    1.00   0.00  0.00  0.00  0.75  0.25  0.00  0.00  0.00  0.00
  YS02001788YS02001790    1.00   0.00  0.00  0.00  0.25  0.75  0.00  0.00  0.73  0.00
  YS02001790YS02001791    1.00   0.00  0.00  0.00  0.01  0.99  0.00  0.00  0.11  0.00
  YS02001791YS02001793    1.00   0.00  0.00  0.00  0.00  1.00  0.00  0.00  0.03  0.00
  YS02001793JiankangQianchi    1.00   0.00  0.00  0.00  0.85  0.15  0.00  0.00  0.87  0.00
  YS02001882YS02001884    1.00   0.07  0.00  0.00  0.93  0.00  0.00  0.00  0.00  0.00
  YS02001884YS02001887    1.00   0.03  0.03  0.00  0.94  0.00  0.00  0.00  0.00  0.00
  YS02001887YS02001890    1.00   0.00  0.00  0.00  0.98  0.00  0.02  0.00  0.00  0.00
  YS02001890YS02001895    1.00   0.00  0.07  0.00  0.93  0.00  0.00  0.00  0.00  0.00
  YS02001895YS02001898    1.00   0.07  0.00  0.00  0.90  0.00  0.03  0.00  0.00  0.00
  YS02001898YS02001901    1.00   0.08  0.00  0.00  0.92  0.01  0.00  0.00  0.00  0.00
  YS02001901YS02001904    1.00   0.08  0.00  0.00  0.92  0.00  0.00  0.00  0.00  0.00
  YS02001904YS02001907    1.00   0.00  0.08  0.00  0.92  0.00  0.00  0.00  0.00  0.00
  YS02001907YS02006553    1.00   0.00  0.01  0.00  0.99  0.00  0.00  0.00  0.00  0.00
  YS02001910YS02001907    1.00   0.00  0.00  0.00  0.98  0.00  0.00  0.01  0.11  0.00
  YS02001915YS02001910    1.00   0.00  0.00  0.00  0.99  0.01  0.00  0.00  0.11  0.00
  YS02001918YS02001915    1.00   0.00  0.00  0.00  0.99  0.01  0.00  0.00  0.63  0.00
  YS02001920YS02001918    1.00   0.00  0.00  0.00  1.00  0.00  0.00  0.00  0.01  0.00
  YS02001923YS02001920    1.00   0.00  0.00  0.00  1.00  0.00  0.00  0.00  0.78  0.00
  YS02001926YS02001923    1.00   0.00  0.04  0.00  0.31  0.00  0.65  0.00  0.00  0.00
  YS02001929YS02001926    1.00   0.00  0.07  0.00  0.93  0.00  0.00  0.00  0.68  0.00
  YS02006553YS02006556    1.00   0.01  0.00  0.00  0.99  0.00  0.00  0.00  0.03  0.00
  YS02006556YS02006558    1.00   0.00  0.00  0.00  1.00  0.00  0.00  0.00  0.00  0.00
  YS02006558YS02006561    1.00   0.09  0.00  0.00  0.30  0.61  0.00  0.00  0.13  0.00
  YS02006561YS02001783    1.00   0.09  0.00  0.00  0.37  0.53  0.00  0.00  0.60  0.00
  YS02163301YS02001633    1.00   0.00  0.07  0.00  0.93  0.00  0.00  0.00  0.00  0.00
  YS02163601YS02164001    1.00   0.00  0.05  0.00  0.95  0.00  0.00  0.00  0.00  0.00
  YS02164001YS02001641    1.00   0.01  0.04  0.00  0.95  0.00  0.00  0.00  0.05  0.00
  
  
  *************************
  Conduit Surcharge Summary
  *************************
  
  ----------------------------------------------------------------------------
                                                           Hours        Hours 
                         --------- Hours Full --------   Above Full   Capacity
  Conduit                Both Ends  Upstream  Dnstream   Normal Flow   Limited
  ----------------------------------------------------------------------------
  WS02003072WS02003073        0.01      0.01      0.01      2.40         0.01
  WS02004401WS02004402        0.01      0.01      0.01      0.01         0.01
  WS02004402WS02004403        0.01      0.01      0.01      0.01         0.01
  WS02004404WS02004405        0.01      0.01      0.01      3.29         0.01
  WS02004405WS02004406        0.01      0.01      0.01      1.91         0.01
  WS02006109WS02006110        1.94      1.95      2.96      2.00         0.01
  WS02006110WS02006113        0.01      0.01      2.96      0.01         0.01
  WS02006111WS02006112        0.01      0.01      3.03      0.01         0.01
  WS02006112WS02006115        0.01      0.01      1.95      0.01         0.01
  WS02006113WS02006111        0.01      0.01      0.01      0.01         0.01
  WS02006115WS02006116        0.01      0.01      0.01      0.01         0.01
  WS02006116WS02004401        0.01      0.01      0.01      0.01         0.01
  WS02006228WS02006109        2.93      2.96      2.93      3.10         2.93
  WS02006229WS02006228        2.92      2.93      2.92      3.05         2.91
  WS02006230WS02006229        2.99      3.02      2.99      3.36         2.99
  WS02006231WS02006230        1.95      1.95      2.06      3.25         0.01
  WS02006232WS02006231        2.03      2.03      2.97      2.11         0.01
  WS02006234WS02006232        2.81      2.81      2.97      2.09         2.09
  WS02006235WS02006234        2.29      2.30      2.85      3.21         0.02
  WS02006238WS02006235        2.89      2.89      2.96      0.01         0.01
  WS02006239WS02006238        2.91      2.93      2.92      2.92         2.56
  WS02006240WS02006239        2.87      2.92      2.87      2.92         2.32
  WS02006242WS02006240        2.91      2.91      2.94      2.94         0.01
  WS02006243WS02006242        2.91      2.91      2.93      0.01         0.07
  WS02006245WS02006243        2.91      2.91      2.91      0.93         1.30
  WS02006247WS02006245        2.91      2.91      2.91      3.17         2.89
  WS02006248WS02006247        2.91      2.91      2.91      0.01         0.08
  WS02006249WS02006248        2.90      2.90      2.90      3.16         0.01
  WS02006251WS02006249        2.90      2.90      2.90      2.91         2.79
  WS02006252WS02006251        2.94      2.94      2.95      2.94         0.01
  WS02006256WS02006235        3.20      3.23      3.58      2.21         0.01
  YS02001580YS02001583        1.84      1.84      1.88      0.01         0.01
  YS02001583YS02001586        1.84      1.84      1.95      0.01         0.01
  YS02001586YS02001590        1.96      1.96      2.03      0.01         0.01
  YS02001590YS02001593        2.03      2.03      2.05      2.06         0.01
  YS02001593YS02001596        2.04      2.04      2.13      0.01         0.01
  YS02001596YS02001600        2.17      2.17      2.24      0.01         0.01
  YS02001600YS02001601        2.29      2.29      2.47      0.01         0.01
  YS02001601YS02001602        2.41      2.41      2.49      2.21         0.01
  YS02001602YS02001605        2.38      2.38      2.41      3.05         0.01
  YS02001605YS02001607        2.35      2.38      2.37      2.36         2.28
  YS02001607YS02001610        2.04      2.04      2.06      0.01         0.01
  YS02001610YS02001613        2.04      2.04      2.06      0.01         0.01
  YS02001613YS02001616        2.00      2.00      2.04      0.01         0.01
  YS02001616YS02001619        1.98      1.98      2.00      0.74         0.69
  YS02001619YS02001622        1.98      1.98      1.99      1.94         1.84
  YS02001622YS02001625        1.99      1.99      2.16      0.01         0.01
  YS02001625YS02001629        1.93      1.93      2.16      0.01         0.01
  YS02001629YS02163301        2.17      2.17      2.19      0.57         0.11
  YS02001633YS02163601        2.22      2.22      2.26      0.21         0.23
  YS02001641YS02001644        2.17      2.19      2.17      2.52         2.09
  YS02001644YS02001647        1.96      1.96      2.17      0.01         0.01
  YS02001647YS02001649        1.96      1.96      2.10      0.01         0.01
  YS02001649YS02001757        2.10      2.10      2.18      0.11         0.09
  YS02001652YS02001649        1.94      1.94      2.10      0.26         0.26
  YS02001655YS02001652        1.75      1.75      1.92      0.26         0.26
  YS02001658YS02001655        1.37      1.37      1.75      0.21         0.21
  YS02001661YS02001658        0.74      0.74      1.37      0.19         0.19
  YS02001664YS02001661        0.41      0.41      0.91      0.01         0.01
  YS02001745YS02001748        0.45      0.45      1.24      0.05         0.05
  YS02001748YS02001751        1.34      1.34      1.62      0.11         0.12
  YS02001751YS02001754        1.62      1.62      1.85      0.10         0.11
  YS02001754YS02001757        1.90      1.90      2.18      0.01         0.01
  YS02001757CaochengTiaoxuchi        2.18      2.18      2.70      0.91         0.91
  YS02001759YS02001757        2.09      2.09      2.18      0.04         0.01
  YS02001762YS02001759        2.06      2.06      2.09      0.01         0.01
  YS02001765YS02001762        2.02      2.02      2.06      0.01         0.01
  YS02001767YS02001765        1.99      1.99      2.02      0.01         0.02
  YS02001770YS02001767        1.99      1.99      1.99      1.58         0.99
  YS02001774YS02001770        1.97      1.97      2.04      0.01         0.01
  YS02001779YS02001774        1.83      1.83      2.04      0.01         0.01
  YS02001783YS02001784        1.68      1.70      1.68      1.84         1.68
  YS02001784YS02001785        1.54      1.68      1.54      1.95         1.54
  YS02001786YS02001788        0.01      1.54      0.01      1.91         0.01
  YS02001788YS02001790        0.01      0.01      0.01      0.01         0.01
  YS02001790YS02001791        0.01      0.01      0.01      1.66         0.01
  YS02001793JiankangQianchi        0.01      0.01      7.99      0.01         0.01
  YS02001882YS02001884        1.64      1.64      1.66      0.01         0.01
  YS02001884YS02001887        1.68      1.68      1.69      0.01         0.01
  YS02001887YS02001890        1.71      1.71      1.72      0.77         0.01
  YS02001890YS02001895        1.62      1.62      1.74      0.01         0.01
  YS02001895YS02001898        1.62      1.62      1.62      0.01         0.01
  YS02001898YS02001901        1.63      1.63      1.68      0.01         0.01
  YS02001901YS02001904        1.67      1.67      1.68      0.01         0.01
  YS02001904YS02001907        1.67      1.67      1.90      0.01         0.01
  YS02001907YS02006553        1.96      1.96      1.99      0.33         0.33
  YS02001910YS02001907        1.74      1.74      1.88      0.57         0.57
  YS02001915YS02001910        1.64      1.64      1.74      0.01         0.03
  YS02001918YS02001915        1.53      1.53      1.64      0.01         0.01
  YS02001920YS02001918        1.53      1.53      1.55      0.33         0.01
  YS02001923YS02001920        1.48      1.48      1.55      0.01         0.01
  YS02001926YS02001923        0.80      0.80      0.86      0.51         0.01
  YS02001929YS02001926        0.60      0.60      0.86      0.01         0.01
  YS02006553YS02006556        1.82      1.82      1.90      0.28         0.28
  YS02006556YS02006558        1.86      1.86      1.90      0.26         0.01
  YS02006558YS02006561        1.57      1.81      1.57      1.94         1.57
  YS02006561YS02001783        1.49      1.49      1.70      0.01         0.01
  YS02163301YS02001633        2.19      2.19      2.24      0.36         0.01
  YS02163601YS02164001        2.19      2.19      2.26      0.12         0.01
  YS02164001YS02001641        2.18      2.19      2.19      1.02         1.00
  
  
  ***************
  Pumping Summary
  ***************
  
  ---------------------------------------------------------------------------------------------------------
                                                  Min       Avg       Max     Total     Power    % Time Off
                        Percent   Number of      Flow      Flow      Flow    Volume     Usage    Pump Curve
  Pump                 Utilized   Start-Ups       LPS       LPS       LPS  10^6 ltr     Kw-hr    Low   High
  ---------------------------------------------------------------------------------------------------------
  CC-R1                   35.57           1      0.00    683.00    683.00     6.998    138.97    0.0   52.7
  CC-R2                   34.08           1      0.00    683.00    683.00     6.705    133.55    0.0   55.0
  CC-S1                   39.90           3      0.00    200.00    200.00     2.299     10.41    0.0   39.4
  CC-S2                   36.75           1      0.00    200.00    200.00     2.117      9.30    0.0   42.7
  JK-R1                   20.45         103      0.00   1000.00   1000.00     5.890     63.04    0.0    0.0
  JK-R2                    0.00           0      0.00      0.00      0.00     0.000      0.00    0.0    0.0
  JK-S                    27.72          19      0.00    300.00    300.00     2.395     35.19    0.0    0.0
  

  Analysis begun on:  Wed Aug  9 17:03:43 2023
  Analysis ended on:  Wed Aug  9 17:04:21 2023
  Total elapsed time: 00:00:38