
  OWA STORM WATER MANAGEMENT MODEL - VERSION v5.1.14 (OWA 2022-07-31)
  --------------------------------------------------------------

  WARNING 04: minimum elevation drop used for Conduit WS02004404WS02004405
  WARNING 03: negative offset ignored for Link YS02001904YS02001907
  
  *********************************************************
  NOTE: The summary statistics displayed in this report are
  based on results found at every computational time step,  
  not just on results from each reporting time step.
  *********************************************************
  
  ****************
  Analysis Options
  ****************
  Flow Units ............... LPS
  Process Models:
    Rainfall/Runoff ........ YES
    RDII ................... NO
    Snowmelt ............... NO
    Groundwater ............ NO
    Flow Routing ........... YES
    Ponding Allowed ........ NO
    Water Quality .......... NO
  Infiltration Method ...... HORTON
  Flow Routing Method ...... DYNWAVE
  Surcharge Method ......... EXTRAN
  Starting Date ............ 08/28/2015 08:00:00
  Ending Date .............. 08/28/2015 16:00:00
  Antecedent Dry Days ...... 8.0
  Report Time Step ......... 00:01:00
  Wet Time Step ............ 00:01:00
  Dry Time Step ............ 00:01:00
  Routing Time Step ........ 30.00 sec
  Variable Time Step ....... YES
  Maximum Trials ........... 8
  Number of Threads ........ 4
  Head Tolerance ........... 0.001500 m
  
  
  **************************        Volume         Depth
  Runoff Quantity Continuity     hectare-m            mm
  **************************     ---------       -------
  Total Precipitation ......         2.696        81.291
  Evaporation Loss .........         0.000         0.000
  Infiltration Loss ........         0.101         3.036
  Surface Runoff ...........         2.563        77.283
  Final Storage ............         0.033         0.995
  Continuity Error (%) .....        -0.028
  
  
  **************************        Volume        Volume
  Flow Routing Continuity        hectare-m      10^6 ltr
  **************************     ---------     ---------
  Dry Weather Inflow .......         0.025         0.251
  Wet Weather Inflow .......         2.564        25.645
  Groundwater Inflow .......         0.000         0.000
  RDII Inflow ..............         0.000         0.000
  External Inflow ..........         0.083         0.834
  External Outflow .........         1.695        16.946
  Flooding Loss ............         1.026        10.260
  Evaporation Loss .........         0.000         0.000
  Exfiltration Loss ........         0.000         0.000
  Initial Stored Volume ....         0.243         2.431
  Final Stored Volume ......         0.224         2.239
  Continuity Error (%) .....        -0.978
  
  
  *************************
  Highest Continuity Errors
  *************************
  Node YS02001583 (-10.46%)
  Node YS02001884 (5.09%)
  
  
  ***************************
  Time-Step Critical Elements
  ***************************
  Link WS02004404WS02004405 (32.71%)
  Link WS02006252WS02006251 (18.08%)
  Link YS02001791YS02001793 (12.09%)
  Link WS02006238WS02006235 (8.30%)
  Link WS02003066WSF200 (7.98%)
  
  
  ********************************
  Highest Flow Instability Indexes
  ********************************
  Link WS02006113WS02006111 (30)
  Link WS02006238WS02006235 (25)
  Link WS02006111WS02006112 (24)
  Link WS02006252WS02006251 (22)
  Link YS02001602YS02001605 (20)
  
  
  *************************
  Routing Time Step Summary
  *************************
  Minimum Time Step           :     0.01 sec
  Average Time Step           :     3.07 sec
  Maximum Time Step           :    30.00 sec
  Percent in Steady State     :     0.00
  Average Iterations per Step :     3.47
  Percent Not Converging      :    16.45
  
  
  ***************************
  Subcatchment Runoff Summary
  ***************************
  
  ------------------------------------------------------------------------------------------------------------------------------
                            Total      Total      Total      Total     Imperv       Perv      Total       Total     Peak  Runoff
                           Precip      Runon       Evap      Infil     Runoff     Runoff     Runoff      Runoff   Runoff   Coeff
  Subcatchment                 mm         mm         mm         mm         mm         mm         mm    10^6 ltr      LPS
  ------------------------------------------------------------------------------------------------------------------------------
  sub60                     81.29       0.00       0.00       1.84      70.34       7.91      78.26        1.03   669.49   0.963
  sub61                     81.29       0.00       0.00       2.67      66.35      11.16      77.51        1.42   924.88   0.953
  sub62                     81.29       0.00       0.00       1.23      73.51       5.28      78.79        2.16  1299.42   0.969
  sub63                     81.29       0.00       0.00       4.89      56.75      18.69      75.44        1.71  1020.95   0.928
  sub64                     81.29       0.00       0.00       2.48      67.90       9.72      77.62        1.86  1048.70   0.955
  sub65                     81.29       0.00       0.00       2.14      69.48       8.43      77.90        2.14  1169.36   0.958
  sub66                     81.29       0.00       0.00       6.00      56.65      17.58      74.23        3.46  1504.37   0.913
  sub67                     81.29       0.00       0.00       1.19      73.55       5.32      78.88        1.47  1019.28   0.970
  sub68                     81.29       0.00       0.00       2.21      68.73       9.18      77.91        2.14  1334.31   0.958
  sub69                     81.29       0.00       0.00       1.96      68.99      10.23      79.23        2.93  1562.26   0.975
  sub70                     81.29       0.00       0.00       6.47      53.49      21.17      74.66        2.16   846.31   0.918
  sub71                     81.29       0.00       0.00       1.26      73.47       5.25      78.72        2.06  1136.61   0.968
  sub72                     81.29       0.00       0.00       1.12      74.20       4.57      78.78        1.08   545.10   0.969
  
  
  ******************
  Node Depth Summary
  ******************
  
  ---------------------------------------------------------------------------------
                                 Average  Maximum  Maximum  Time of Max    Reported
                                   Depth    Depth      HGL   Occurrence   Max Depth
  Node                 Type       Meters   Meters   Meters  days hr:min      Meters
  ---------------------------------------------------------------------------------
  WS02003060           JUNCTION     0.21     0.38     5.32     0  02:28        0.38
  WS02003066           JUNCTION     0.18     0.30     5.85     0  02:27        0.30
  WS02003067           JUNCTION     0.48     0.70     6.02     0  02:27        0.70
  WS02003069           JUNCTION     0.24     0.43     5.01     0  02:28        0.43
  WS02003072           JUNCTION     0.29     0.50     4.87     0  02:29        0.50
  WS02003073           JUNCTION     0.17     0.30     4.36     0  02:29        0.30
  WS02004401           JUNCTION     0.57     0.85     6.85     0  02:24        0.85
  WS02004402           JUNCTION     0.60     0.88     6.84     0  02:24        0.88
  WS02004403           JUNCTION     0.63     0.89     6.82     0  02:24        0.89
  WS02004404           JUNCTION     0.70     0.96     6.81     0  02:45        0.96
  WS02004405           JUNCTION     0.70     0.96     6.81     0  02:45        0.96
  WS02004406           JUNCTION     0.71     0.96     6.79     0  02:45        0.96
  WS02004407           JUNCTION     0.16     0.30     6.61     0  02:25        0.30
  WS02004409           JUNCTION     0.36     0.67     6.44     0  02:25        0.67
  WS02004410           JUNCTION     0.38     0.68     6.40     0  02:26        0.68
  WS02004411           JUNCTION     0.41     0.69     6.37     0  02:26        0.69
  WS02004412           JUNCTION     0.43     0.70     6.34     0  02:26        0.70
  WS02004413           JUNCTION     0.60     0.86     6.33     0  02:27        0.86
  WS02006109           JUNCTION     0.63     1.45     8.07     0  02:35        1.45
  WS02006110           JUNCTION     0.63     1.67     8.25     0  02:35        1.67
  WS02006111           JUNCTION     0.16     0.90     7.60     0  00:00        0.40
  WS02006112           JUNCTION     0.73     2.68     8.56     0  00:00        1.14
  WS02006113           JUNCTION     0.25     1.40     8.29     0  00:00        0.46
  WS02006115           JUNCTION     0.45     1.65     7.79     0  00:00        0.86
  WS02006116           JUNCTION     0.54     1.06     7.10     0  00:00        0.83
  WS02006228           JUNCTION     0.62     1.23     7.89     0  02:35        1.23
  WS02006229           JUNCTION     0.60     1.19     7.89     0  02:34        1.16
  WS02006230           JUNCTION     0.61     1.36     8.11     0  02:34        1.13
  WS02006231           JUNCTION     0.41     1.07     8.20     0  02:34        0.87
  WS02006232           JUNCTION     0.54     1.24     8.28     0  02:34        1.11
  WS02006234           JUNCTION     0.48     1.25     8.41     0  02:34        1.08
  WS02006235           JUNCTION     0.53     1.34     8.50     0  02:34        1.21
  WS02006238           JUNCTION     0.56     1.37     8.51     0  02:34        1.31
  WS02006239           JUNCTION     0.52     1.42     8.62     0  02:11        1.42
  WS02006240           JUNCTION     0.50     1.53     8.82     0  02:11        1.53
  WS02006242           JUNCTION     0.56     1.52     8.79     0  02:34        1.34
  WS02006243           JUNCTION     0.48     1.41     8.83     0  02:34        1.17
  WS02006245           JUNCTION     0.48     1.35     8.83     0  02:34        1.20
  WS02006247           JUNCTION     0.50     1.29     8.79     0  02:34        1.27
  WS02006248           JUNCTION     0.46     1.10     8.69     0  01:47        1.10
  WS02006249           JUNCTION     0.49     1.09     8.69     0  01:37        1.09
  WS02006251           JUNCTION     0.49     1.40     9.07     0  01:38        1.23
  WS02006252           JUNCTION     0.32     1.50     9.74     0  01:35        0.90
  WS02006256           JUNCTION     1.19     2.35     9.28     0  01:30        2.35
  WSF200               JUNCTION     0.15     0.29     5.52     0  02:27        0.29
  YS02001580           JUNCTION     0.15     1.05     9.59     0  01:33        1.05
  YS02001583           JUNCTION     0.19     1.14     9.64     0  01:33        0.94
  YS02001586           JUNCTION     0.30     1.13     9.30     0  01:33        1.13
  YS02001590           JUNCTION     0.43     1.40     9.26     0  01:32        1.40
  YS02001593           JUNCTION     0.35     1.39     9.25     0  02:11        1.39
  YS02001596           JUNCTION     0.49     1.80     9.22     0  01:58        1.80
  YS02001600           JUNCTION     0.59     1.87     9.00     0  01:32        1.87
  YS02001601           JUNCTION     0.80     2.06     8.90     0  01:32        2.06
  YS02001602           JUNCTION     0.69     1.87     8.77     0  01:33        1.87
  YS02001605           JUNCTION     0.64     1.78     8.68     0  01:33        1.78
  YS02001607           JUNCTION     0.60     1.68     8.53     0  01:33        1.67
  YS02001610           JUNCTION     0.64     1.68     8.48     0  01:33        1.68
  YS02001613           JUNCTION     0.60     1.67     8.51     0  02:11        1.66
  YS02001616           JUNCTION     0.53     1.61     8.52     0  01:33        1.61
  YS02001619           JUNCTION     0.51     1.61     8.54     0  01:33        1.61
  YS02001622           JUNCTION     0.49     1.62     8.52     0  01:33        1.58
  YS02001625           JUNCTION     0.75     1.78     8.38     0  01:34        1.78
  YS02001629           JUNCTION     0.64     1.85     8.40     0  01:34        1.85
  YS02001633           JUNCTION     0.72     2.08     8.53     0  01:36        2.08
  YS02001641           JUNCTION     0.69     2.10     8.54     0  01:58        2.10
  YS02001644           JUNCTION     0.68     1.92     8.35     0  01:35        1.92
  YS02001647           JUNCTION     0.46     1.90     8.51     0  01:58        1.90
  YS02001649           JUNCTION     0.53     2.05     8.44     0  01:36        2.05
  YS02001652           JUNCTION     0.41     2.16     8.76     0  01:36        1.93
  YS02001655           JUNCTION     0.33     2.20     9.05     0  01:36        1.76
  YS02001658           JUNCTION     0.24     2.30     9.44     0  01:36        1.56
  YS02001661           JUNCTION     0.23     2.46     9.86     0  01:36        1.41
  YS02001664           JUNCTION     0.09     2.15    10.08     0  01:36        1.04
  YS02001745           JUNCTION     0.12     2.01     9.53     0  01:36        0.87
  YS02001748           JUNCTION     0.23     2.27     9.35     0  01:36        1.28
  YS02001751           JUNCTION     0.29     2.20     9.08     0  01:36        1.46
  YS02001754           JUNCTION     0.37     2.19     8.80     0  01:36        1.78
  YS02001757           JUNCTION     0.56     2.21     8.47     0  01:36        2.21
  YS02001759           JUNCTION     0.50     2.21     8.57     0  01:36        2.21
  YS02001762           JUNCTION     0.49     2.15     8.55     0  01:36        2.15
  YS02001765           JUNCTION     0.46     2.10     8.55     0  01:36        2.10
  YS02001767           JUNCTION     0.46     2.03     8.52     0  01:35        2.03
  YS02001770           JUNCTION     0.47     1.95     8.44     0  01:35        1.95
  YS02001774           JUNCTION     0.54     2.05     8.47     0  01:35        2.05
  YS02001779           JUNCTION     0.35     1.68     8.37     0  01:35        1.68
  YS02001783           JUNCTION     0.33     1.43     7.57     0  01:35        1.23
  YS02001784           JUNCTION     0.34     1.34     7.41     0  01:34        1.14
  YS02001786           JUNCTION     0.28     1.35     7.38     0  01:34        0.88
  YS02001788           JUNCTION     0.20     0.63     6.60     0  01:35        0.62
  YS02001790           JUNCTION     0.24     0.73     6.37     0  01:39        0.73
  YS02001791           JUNCTION     0.15     0.44     5.91     0  01:38        0.43
  YS02001793           JUNCTION     0.08     0.31     5.15     0  01:40        0.29
  YS02001882           JUNCTION     0.42     1.83     8.55     0  01:34        1.83
  YS02001884           JUNCTION     0.51     1.93     8.55     0  01:34        1.93
  YS02001887           JUNCTION     0.59     2.00     8.54     0  01:58        2.00
  YS02001890           JUNCTION     0.62     1.81     8.32     0  01:34        1.81
  YS02001895           JUNCTION     0.39     1.75     8.50     0  01:34        1.63
  YS02001898           JUNCTION     0.39     1.77     8.51     0  01:34        1.77
  YS02001901           JUNCTION     0.50     1.87     8.48     0  01:34        1.70
  YS02001904           JUNCTION     0.48     1.85     8.48     0  01:34        1.64
  YS02001907           JUNCTION     0.80     1.96     8.25     0  01:34        1.96
  YS02001910           JUNCTION     0.60     2.10     8.61     0  01:35        1.98
  YS02001915           JUNCTION     0.42     2.00     8.72     0  01:34        1.96
  YS02001918           JUNCTION     0.24     1.81     8.88     0  01:35        1.81
  YS02001920           JUNCTION     0.33     2.14     9.15     0  01:35        2.04
  YS02001923           JUNCTION     0.19     2.03     9.29     0  01:35        1.94
  YS02001926           JUNCTION     0.22     1.90     9.35     0  01:35        1.90
  YS02001929           JUNCTION     0.13     1.78     9.47     0  01:35        1.70
  YS02006553           JUNCTION     0.80     2.03     8.31     0  01:35        1.98
  YS02006556           JUNCTION     0.78     2.07     8.38     0  01:35        1.99
  YS02006558           JUNCTION     0.82     2.13     8.40     0  01:35        2.06
  YS02006561           JUNCTION     0.21     1.20     7.86     0  01:35        0.90
  YS02163301           JUNCTION     0.66     1.99     8.50     0  02:11        1.99
  YS02163601           JUNCTION     0.75     2.08     8.48     0  01:36        2.08
  YS02164001           JUNCTION     0.68     2.10     8.56     0  01:58        2.10
  CC-1                 OUTFALL      0.00     0.00     0.00     0  00:00        0.00
  CC-2                 OUTFALL      0.00     0.00     0.00     0  00:00        0.00
  JK-1                 OUTFALL      0.00     0.00     0.00     0  00:00        0.00
  JK-2                 OUTFALL      0.00     0.00     0.00     0  00:00        0.00
  WSC                  OUTFALL      0.17     0.30     0.97     0  02:05        0.30
  CC-storage           STORAGE      1.01     1.83     7.33     0  02:18        1.83
  JK-storage           STORAGE      3.14     4.24     5.04     0  01:51        4.24
  
  
  *******************
  Node Inflow Summary
  *******************
  
  -------------------------------------------------------------------------------------------------
                                  Maximum  Maximum                  Lateral       Total        Flow
                                  Lateral    Total  Time of Max      Inflow      Inflow     Balance
                                   Inflow   Inflow   Occurrence      Volume      Volume       Error
  Node                 Type           LPS      LPS  days hr:min    10^6 ltr    10^6 ltr     Percent
  -------------------------------------------------------------------------------------------------
  WS02003060           JUNCTION     16.53   553.38     0  02:27       0.476        4.95       0.044
  WS02003066           JUNCTION      0.00   536.71     0  02:27           0        4.47       0.028
  WS02003067           JUNCTION      0.00   536.69     0  02:27           0        4.48       0.090
  WS02003069           JUNCTION      0.32   553.56     0  02:28     0.00922        4.95       0.070
  WS02003072           JUNCTION      0.00   553.37     0  02:28           0        4.95       0.128
  WS02003073           JUNCTION      1.82   555.10     0  02:29      0.0524           5       0.101
  WS02004401           JUNCTION      0.00  1677.78     0  00:00           0        4.58       0.242
  WS02004402           JUNCTION      0.00  1171.33     0  00:01           0        4.57       0.237
  WS02004403           JUNCTION      0.00   884.75     0  00:01           0        4.56       0.233
  WS02004404           JUNCTION      0.16   832.59     0  00:01     0.00467        4.55       0.192
  WS02004405           JUNCTION      0.04   776.49     0  00:01      0.0011        4.54       0.270
  WS02004406           JUNCTION      0.00   711.76     0  00:02           0        4.53       0.471
  WS02004407           JUNCTION      0.00   537.45     0  02:25           0        4.51       0.019
  WS02004409           JUNCTION      0.00   537.23     0  02:25           0        4.51       0.050
  WS02004410           JUNCTION      0.00   537.11     0  02:25           0         4.5       0.089
  WS02004411           JUNCTION      0.00   536.99     0  02:26           0         4.5       0.118
  WS02004412           JUNCTION      0.00   536.90     0  02:26           0         4.5       0.155
  WS02004413           JUNCTION      0.00   536.89     0  02:26           0        4.49       0.287
  WS02006109           JUNCTION      1.23  1308.01     0  00:00      0.0354        4.51       0.233
  WS02006110           JUNCTION      0.00   555.36     0  02:35           0        4.48      -0.814
  WS02006111           JUNCTION      0.00  1176.04     0  00:00           0        4.51      -0.858
  WS02006112           JUNCTION      0.00  2307.30     0  00:00           0        4.55      -0.021
  WS02006113           JUNCTION      0.00   565.20     0  02:35           0        4.47      -1.107
  WS02006115           JUNCTION      0.00   899.27     0  00:00           0        4.52      -0.719
  WS02006116           JUNCTION      0.00  1098.16     0  00:01           0        4.56      -0.516
  WS02006228           JUNCTION      0.00   552.88     0  02:34           0        4.46       0.122
  WS02006229           JUNCTION      0.00   553.85     0  02:34           0        4.44       0.167
  WS02006230           JUNCTION     10.28   577.77     0  02:34       0.296        4.43       0.048
  WS02006231           JUNCTION      0.00   571.43     0  02:34           0        4.12      -0.056
  WS02006232           JUNCTION      0.00   570.29     0  02:34           0        4.12       0.150
  WS02006234           JUNCTION      0.00   567.01     0  02:34           0        4.12      -0.135
  WS02006235           JUNCTION      0.00   561.11     0  02:34           0        4.18       0.170
  WS02006238           JUNCTION      0.00   422.33     0  02:29           0        2.76      -0.052
  WS02006239           JUNCTION      0.00   421.11     0  02:29           0        2.73      -0.051
  WS02006240           JUNCTION      0.00   418.20     0  02:29           0        2.71      -0.012
  WS02006242           JUNCTION      0.00   417.88     0  02:29           0        2.69       0.088
  WS02006243           JUNCTION      0.00   418.47     0  02:29           0        2.67      -0.087
  WS02006245           JUNCTION      0.00   418.11     0  02:29           0        2.67       0.168
  WS02006247           JUNCTION      0.00   418.95     0  02:29           0        2.67       0.005
  WS02006248           JUNCTION      0.00   419.82     0  02:29           0        2.66      -0.030
  WS02006249           JUNCTION      0.00   427.19     0  01:38           0        3.09       0.055
  WS02006251           JUNCTION      0.08   407.82     0  01:38     0.00222        3.09      -0.010
  WS02006252           JUNCTION      0.00   400.00     0  01:35           0        3.08      -0.090
  WS02006256           JUNCTION      0.00   300.00     0  01:30           0        2.15      -0.289
  WSF200               JUNCTION      0.00   536.75     0  02:27           0        4.47       0.007
  YS02001580           JUNCTION      0.00   170.44     0  01:33           0     0.00486       0.042
  YS02001583           JUNCTION      0.00   267.98     0  01:33           0      0.0153      -9.466
  YS02001586           JUNCTION    846.31   846.31     0  01:42        2.16        2.17       0.082
  YS02001590           JUNCTION      0.00   319.45     0  01:58           0        1.55      -0.023
  YS02001593           JUNCTION      0.00   318.60     0  01:46           0        1.55      -0.003
  YS02001596           JUNCTION      0.00   318.12     0  01:40           0        1.55      -0.017
  YS02001600           JUNCTION      0.00   318.43     0  02:11           0        1.55      -0.002
  YS02001601           JUNCTION   1562.26  1879.88     0  01:40        2.93        4.48       0.001
  YS02001602           JUNCTION      0.00   579.19     0  01:33           0        2.52       0.009
  YS02001605           JUNCTION      0.00   579.22     0  01:33           0        2.35       0.010
  YS02001607           JUNCTION      0.00   579.12     0  01:33           0        2.35       0.076
  YS02001610           JUNCTION      0.00   847.89     0  01:42           0        2.77       0.069
  YS02001613           JUNCTION      0.00   554.21     0  01:33           0        2.13       0.079
  YS02001616           JUNCTION      0.00   559.19     0  01:33           0        2.13       0.015
  YS02001619           JUNCTION   1504.37  1504.37     0  01:42        3.46        5.17       0.002
  YS02001622           JUNCTION      0.00   997.14     0  01:41           0        4.74      -0.005
  YS02001625           JUNCTION      0.00  1411.35     0  01:43           0        5.05       0.174
  YS02001629           JUNCTION      0.00   956.87     0  01:34           0        3.69       0.009
  YS02001633           JUNCTION   1169.56  1409.08     0  01:34        2.15        5.41       0.057
  YS02001641           JUNCTION      0.00  1408.54     0  01:34           0        5.01       0.048
  YS02001644           JUNCTION   1048.74  1917.63     0  01:35        1.87        6.87       0.045
  YS02001647           JUNCTION      0.00  1918.54     0  01:35           0        6.03       0.003
  YS02001649           JUNCTION      0.00  2151.50     0  01:35           0        7.75       0.007
  YS02001652           JUNCTION      0.00  1071.09     0  01:37           0        1.72      -0.081
  YS02001655           JUNCTION      0.15  1067.42     0  01:37     0.00443        1.72      -0.060
  YS02001658           JUNCTION      0.00  1065.64     0  01:37           0        1.74      -0.180
  YS02001661           JUNCTION      0.00  1063.38     0  01:37           0        1.74       0.051
  YS02001664           JUNCTION   1020.95  1020.95     0  01:39        1.71        1.71      -0.033
  YS02001745           JUNCTION    669.49   728.95     0  01:36        1.03        1.04       0.166
  YS02001748           JUNCTION      0.04   966.37     0  01:36      0.0013        1.04      -0.346
  YS02001751           JUNCTION      0.01   685.47     0  01:38    0.000317        1.05       0.008
  YS02001754           JUNCTION      0.26   686.45     0  01:38     0.00749        1.06      -0.194
  YS02001757           JUNCTION      0.00  3461.66     0  01:37           0          12       0.013
  YS02001759           JUNCTION    924.92  1461.19     0  01:36        1.42        3.17      -0.021
  YS02001762           JUNCTION      0.00   705.64     0  01:36           0        1.75       0.001
  YS02001765           JUNCTION      0.00   707.04     0  01:36           0        1.74       0.001
  YS02001767           JUNCTION      0.54   708.96     0  01:36      0.0154        1.74      -0.008
  YS02001770           JUNCTION   1299.57  1299.57     0  01:39        2.16        2.21      -0.017
  YS02001774           JUNCTION      0.00   815.70     0  01:39           0         0.5       0.200
  YS02001779           JUNCTION      0.01   816.52     0  01:39    0.000144       0.452      -0.117
  YS02001783           JUNCTION      0.00  1172.70     0  01:36           0        4.66       0.006
  YS02001784           JUNCTION      1.06  1173.61     0  01:36      0.0305        4.69       0.009
  YS02001786           JUNCTION      0.06  1173.93     0  01:36     0.00162        4.69       0.014
  YS02001788           JUNCTION      0.07  1174.62     0  01:37     0.00204        4.69       0.007
  YS02001790           JUNCTION      0.15  1181.43     0  01:36     0.00446         4.7       0.038
  YS02001791           JUNCTION      0.00  1296.66     0  01:39           0        4.69      -0.047
  YS02001793           JUNCTION      0.00  1260.32     0  01:40           0         4.7       0.005
  YS02001882           JUNCTION      0.00   111.23     0  01:34           0      0.0139       3.894
  YS02001884           JUNCTION      0.00   150.06     0  01:34           0      0.0505       5.359
  YS02001887           JUNCTION   1019.73  1019.75     0  01:38        1.48        1.51       0.295
  YS02001890           JUNCTION      0.00  1019.68     0  01:38           0        1.47       0.345
  YS02001895           JUNCTION      0.00   613.20     0  01:35           0        1.27       0.123
  YS02001898           JUNCTION      0.00   612.60     0  01:35           0        1.26      -0.009
  YS02001901           JUNCTION      0.00   612.30     0  01:35           0        1.27       0.256
  YS02001904           JUNCTION      0.00   611.49     0  01:35           0        1.27       0.207
  YS02001907           JUNCTION      0.00  2361.68     0  01:39           0        4.53       0.388
  YS02001910           JUNCTION      0.00  1685.92     0  01:40           0        3.23       0.219
  YS02001915           JUNCTION   1136.63  1685.63     0  01:40        2.06        3.28       0.050
  YS02001918           JUNCTION      0.00   771.45     0  01:35           0        1.25       0.010
  YS02001920           JUNCTION      2.87   758.21     0  01:35      0.0827        1.23       0.065
  YS02001923           JUNCTION      0.04  1006.05     0  01:35     0.00109        1.13      -0.057
  YS02001926           JUNCTION      0.05  1240.93     0  01:35      0.0015         1.1      -0.151
  YS02001929           JUNCTION    545.10   951.81     0  01:35        1.08        1.09      -0.262
  YS02006553           JUNCTION      0.00   792.18     0  02:04           0        2.62       0.446
  YS02006556           JUNCTION      0.00   792.56     0  02:04           0        2.63       0.306
  YS02006558           JUNCTION   1335.19  1335.19     0  01:39        2.17        4.73       0.081
  YS02006561           JUNCTION      0.00  1172.44     0  01:36           0        4.66      -0.003
  YS02163301           JUNCTION      0.00   872.39     0  01:34           0        3.67       0.025
  YS02163601           JUNCTION      0.11  1409.00     0  01:34     0.00317           5       0.087
  YS02164001           JUNCTION      0.00  1409.01     0  01:34           0           5       0.029
  CC-1                 OUTFALL       0.00   683.00     0  01:38           0        4.75       0.000
  CC-2                 OUTFALL       0.00   683.00     0  01:43           0        4.57       0.000
  JK-1                 OUTFALL       0.00  1000.00     0  01:32           0        2.63       0.000
  JK-2                 OUTFALL       0.00     0.00     0  00:00           0           0       0.000 ltr
  WSC                  OUTFALL       0.00   555.03     0  02:05           0        4.99       0.000
  CC-storage           STORAGE       0.00  3460.22     0  01:37           0        14.2      -0.139
  JK-storage           STORAGE       0.00  1222.14     0  01:40           0        4.85      -0.248
  
  
  **********************
  Node Surcharge Summary
  **********************
  
  Surcharging occurs when water rises above the top of the highest conduit.
  ---------------------------------------------------------------------
                                               Max. Height   Min. Depth
                                   Hours       Above Crown    Below Rim
  Node                 Type      Surcharged         Meters       Meters
  ---------------------------------------------------------------------
  WS02006109           JUNCTION        1.98          0.628        1.192
  WS02006110           JUNCTION        1.64          0.756        1.094
  WS02006111           JUNCTION        0.01          0.087        1.783
  WS02006112           JUNCTION        1.61          1.680        0.000
  WS02006113           JUNCTION        0.01          0.600        1.330
  WS02006115           JUNCTION        0.01          0.642        1.608
  WS02006116           JUNCTION        0.01          0.000        2.290
  WS02006228           JUNCTION        1.97          0.404        1.796
  WS02006229           JUNCTION        1.99          0.393        2.057
  WS02006230           JUNCTION        1.62          0.283        1.287
  WS02006231           JUNCTION        1.66          0.362        1.168
  WS02006232           JUNCTION        2.02          0.544        0.936
  WS02006234           JUNCTION        1.74          0.530        0.710
  WS02006235           JUNCTION        1.98          0.627        0.663
  WS02006238           JUNCTION        2.00          0.651        0.779
  WS02006239           JUNCTION        1.97          0.676        0.614
  WS02006240           JUNCTION        1.97          0.819        0.571
  WS02006242           JUNCTION        1.98          0.789        0.031
  WS02006243           JUNCTION        1.96          0.699        0.071
  WS02006245           JUNCTION        1.96          0.636        0.214
  WS02006247           JUNCTION        1.96          0.585        0.175
  WS02006248           JUNCTION        1.95          0.380        0.000
  WS02006249           JUNCTION        1.95          0.390        0.000
  WS02006251           JUNCTION        1.67          0.365        0.815
  WS02006252           JUNCTION        2.00          1.100        0.000
  WS02006256           JUNCTION        3.82          2.050        0.000
  YS02001580           JUNCTION        0.80          0.450        0.000
  YS02001583           JUNCTION        0.81          0.500        0.000
  YS02001586           JUNCTION        0.99          0.510        0.000
  YS02001590           JUNCTION        1.07          0.750        0.000
  YS02001593           JUNCTION        1.08          0.768        0.072
  YS02001596           JUNCTION        1.20          1.070        0.000
  YS02001600           JUNCTION        1.37          1.190        0.000
  YS02001601           JUNCTION        1.68          1.440        0.000
  YS02001602           JUNCTION        1.60          1.270        0.000
  YS02001605           JUNCTION        1.57          1.180        0.000
  YS02001607           JUNCTION        1.09          0.680        0.000
  YS02001610           JUNCTION        1.12          0.680        0.000
  YS02001613           JUNCTION        1.08          0.668        0.032
  YS02001616           JUNCTION        1.04          0.610        0.000
  YS02001619           JUNCTION        1.02          0.610        0.000
  YS02001622           JUNCTION        1.02          0.620        0.000
  YS02001625           JUNCTION        1.23          0.780        0.000
  YS02001629           JUNCTION        0.96          0.470        0.000
  YS02001633           JUNCTION        1.26          1.060        0.000
  YS02001641           JUNCTION        1.23          1.100        0.000
  YS02001644           JUNCTION        1.21          0.920        0.000
  YS02001647           JUNCTION        0.99          0.900        0.000
  YS02001649           JUNCTION        1.16          1.050        0.000
  YS02001652           JUNCTION        0.93          1.130        0.000
  YS02001655           JUNCTION        0.68          1.200        0.000
  YS02001658           JUNCTION        0.35          1.300        0.000
  YS02001661           JUNCTION        0.11          1.389        0.001
  YS02001664           JUNCTION        0.01          1.151        0.159
  YS02001745           JUNCTION        0.01          1.012        0.338
  YS02001748           JUNCTION        0.27          1.190        0.000
  YS02001751           JUNCTION        0.53          1.200        0.000
  YS02001754           JUNCTION        0.83          1.137        0.013
  YS02001757           JUNCTION        1.25          1.210        0.000
  YS02001759           JUNCTION        1.14          1.210        0.000
  YS02001762           JUNCTION        1.11          1.150        0.000
  YS02001765           JUNCTION        1.06          1.100        0.000
  YS02001767           JUNCTION        1.01          1.030        0.000
  YS02001770           JUNCTION        0.97          0.920        0.000
  YS02001774           JUNCTION        1.09          1.050        0.000
  YS02001779           JUNCTION        0.80          0.680        0.000
  YS02001783           JUNCTION        0.68          0.630        0.970
  YS02001784           JUNCTION        0.65          0.537        0.953
  YS02001786           JUNCTION        0.54          0.552        0.878
  YS02001882           JUNCTION        0.61          0.830        0.000
  YS02001884           JUNCTION        0.62          0.870        0.000
  YS02001887           JUNCTION        0.66          0.950        0.000
  YS02001890           JUNCTION        0.68          0.760        0.000
  YS02001895           JUNCTION        0.60          0.750        0.000
  YS02001898           JUNCTION        0.60          0.740        0.000
  YS02001901           JUNCTION        0.65          0.870        0.000
  YS02001904           JUNCTION        0.64          0.850        0.000
  YS02001907           JUNCTION        0.89          0.950        0.000
  YS02001910           JUNCTION        0.71          1.100        0.000
  YS02001915           JUNCTION        0.61          1.000        0.000
  YS02001918           JUNCTION        0.52          0.810        0.000
  YS02001920           JUNCTION        0.54          1.140        0.000
  YS02001923           JUNCTION        0.19          0.820        0.000
  YS02001926           JUNCTION        0.22          0.900        0.000
  YS02001929           JUNCTION        0.02          0.780        0.000
  YS02006553           JUNCTION        0.92          1.029        0.161
  YS02006556           JUNCTION        0.79          1.030        0.320
  YS02006558           JUNCTION        0.79          1.030        0.370
  YS02006561           JUNCTION        0.49          0.396        0.754
  YS02163301           JUNCTION        1.24          0.988        0.042
  YS02163601           JUNCTION        1.30          1.080        0.000
  YS02164001           JUNCTION        1.22          1.100        0.000
  
  
  *********************
  Node Flooding Summary
  *********************
  
  Flooding refers to all water that overflows a node, whether it ponds or not.
  --------------------------------------------------------------------------
                                                             Total   Maximum
                                 Maximum   Time of Max       Flood    Ponded
                        Hours       Rate    Occurrence      Volume     Depth
  Node                 Flooded       LPS   days hr:min    10^6 ltr    Meters
  --------------------------------------------------------------------------
  WS02006112              0.01   1547.89      0  00:00       0.047     0.000
  WS02006248              0.01     12.27      0  02:34       0.000     0.000
  WS02006249              1.67    104.49      0  01:38       0.423     0.000
  WS02006252              0.01      0.91      0  01:35       0.000     0.000
  WS02006256              1.99    267.24      0  01:30       0.691     0.000
  YS02001580              0.01    112.22      0  01:33       0.001     0.000
  YS02001583              0.01    236.10      0  01:33       0.000     0.000
  YS02001586              0.65    528.70      0  01:42       0.608     0.000
  YS02001590              0.01    120.02      0  01:32       0.000     0.000
  YS02001596              0.01      0.28      0  01:58       0.000     0.000
  YS02001600              0.01      4.62      0  01:32       0.000     0.000
  YS02001601              0.91   1481.83      0  01:40       1.962     0.000
  YS02001602              0.83     62.00      0  02:01       0.168     0.000
  YS02001605              0.01      7.68      0  01:33       0.000     0.000
  YS02001607              0.01     71.74      0  01:33       0.000     0.000
  YS02001610              0.73    847.75      0  01:42       1.063     0.000
  YS02001616              0.01    120.25      0  01:33       0.000     0.000
  YS02001619              0.01    228.93      0  01:33       0.001     0.000
  YS02001622              0.01    299.48      0  01:33       0.001     0.000
  YS02001625              0.71   1411.28      0  01:43       1.763     0.000
  YS02001629              0.18    407.14      0  01:38       0.120     0.000
  YS02001633              0.01      3.18      0  01:36       0.000     0.000
  YS02001641              0.01      0.80      0  01:58       0.000     0.000
  YS02001644              0.29   1465.40      0  01:39       0.826     0.000
  YS02001647              0.01      1.31      0  01:58       0.000     0.000
  YS02001649              0.01    310.82      0  01:37       0.008     0.000
  YS02001652              0.01      6.95      0  01:36       0.000     0.000
  YS02001655              0.01     58.85      0  01:36       0.000     0.000
  YS02001658              0.01     57.96      0  01:36       0.000     0.000
  YS02001748              0.01    339.19      0  01:36       0.001     0.000
  YS02001751              0.01    114.83      0  01:36       0.001     0.000
  YS02001757              0.01     83.25      0  01:36       0.001     0.000
  YS02001759              0.01     33.11      0  01:36       0.000     0.000
  YS02001762              0.01     37.47      0  01:36       0.000     0.000
  YS02001765              0.01     14.03      0  01:36       0.000     0.000
  YS02001767              0.01    326.33      0  01:35       0.000     0.000
  YS02001770              0.04    512.02      0  01:35       0.008     0.000
  YS02001774              0.01    103.21      0  01:35       0.000     0.000
  YS02001779              0.26    816.34      0  01:39       0.430     0.000
  YS02001882              0.01     79.17      0  01:34       0.000     0.000
  YS02001884              0.01     16.74      0  01:34       0.000     0.000
  YS02001887              0.01      1.07      0  01:58       0.000     0.000
  YS02001890              0.23    495.88      0  01:38       0.201     0.000
  YS02001895              0.01    229.09      0  01:34       0.000     0.000
  YS02001898              0.01    297.75      0  01:34       0.001     0.000
  YS02001901              0.01     16.95      0  01:34       0.000     0.000
  YS02001904              0.01    102.61      0  01:34       0.000     0.000
  YS02001907              0.46   2361.54      0  01:39       1.938     0.000
  YS02001910              0.01      8.69      0  01:35       0.000     0.000
  YS02001915              0.01    243.43      0  01:34       0.000     0.000
  YS02001918              0.01    263.77      0  01:36       0.005     0.000
  YS02001920              0.01    328.13      0  01:35       0.000     0.000
  YS02001923              0.01    293.68      0  01:35       0.001     0.000
  YS02001926              0.01    607.47      0  01:35       0.003     0.000
  YS02001929              0.01    753.81      0  01:35       0.004     0.000
  YS02163601              0.01      3.38      0  01:36       0.000     0.000
  YS02164001              0.01      2.30      0  01:58       0.000     0.000
  
  
  **********************
  Storage Volume Summary
  **********************
  
  --------------------------------------------------------------------------------------------------
                         Average     Avg  Evap Exfil       Maximum     Max    Time of Max    Maximum
                          Volume    Pcnt  Pcnt  Pcnt        Volume    Pcnt     Occurrence    Outflow
  Storage Unit           1000 m3    Full  Loss  Loss       1000 m3    Full    days hr:min        LPS
  --------------------------------------------------------------------------------------------------
  CC-storage               2.809      44     0     0         5.103      80       0  02:18    1766.00
  JK-storage               0.158      54     0     0         0.213      73       0  01:51    1300.00
  
  
  ***********************
  Outfall Loading Summary
  ***********************
  
  -----------------------------------------------------------
                         Flow       Avg       Max       Total
                         Freq      Flow      Flow      Volume
  Outfall Node           Pcnt       LPS       LPS    10^6 ltr
  -----------------------------------------------------------
  CC-1                  37.24    683.00    683.00       4.749
  CC-2                  35.82    683.00    683.00       4.571
  JK-1                  16.12   1000.00   1000.00       2.634
  JK-2                   0.00      0.00      0.00       0.000
  WSC                   99.99    236.01    555.03       4.991
  -----------------------------------------------------------
  System                37.83   2602.01    555.03      16.946
  
  
  ********************
  Link Flow Summary
  ********************
  
  -----------------------------------------------------------------------------
                                 Maximum  Time of Max   Maximum    Max/    Max/
                                  |Flow|   Occurrence   |Veloc|    Full    Full
  Link                 Type          LPS  days hr:min     m/sec    Flow   Depth
  -----------------------------------------------------------------------------
  1                    CONDUIT    555.03     0  02:05      2.83    0.19    0.30
  WS02003060WS02003069 CONDUIT    553.24     0  02:28      1.64    0.22    0.34
  WS02003066WSF200     CONDUIT    536.75     0  02:27      2.85    0.09    0.22
  WS02003067WS02003066 CONDUIT    536.71     0  02:27      1.21    0.17    0.42
  WS02003069WS02003072 CONDUIT    553.37     0  02:28      1.37    0.27    0.39
  WS02003072WS02003073 CONDUIT    553.28     0  02:29      1.44    1.19    0.37
  WS02004401WS02004402 CONDUIT   1171.33     0  00:01      2.51    1.41    0.86
  WS02004402WS02004403 CONDUIT    884.75     0  00:01      2.16    1.27    0.88
  WS02004403WS02004404 CONDUIT    832.43     0  00:01      1.96    0.60    0.93
  WS02004404WS02004405 CONDUIT    776.45     0  00:01      2.26    7.61    0.96
  WS02004405WS02004406 CONDUIT    711.76     0  00:02      2.15    1.40    0.96
  WS02004406WS02004407 CONDUIT    537.45     0  02:25      1.04    0.24    0.63
  WS02004407WS02004409 CONDUIT    537.23     0  02:25      1.95    0.19    0.48
  WS02004409WS02004410 CONDUIT    537.11     0  02:25      1.31    0.69    0.67
  WS02004410WS02004411 CONDUIT    536.99     0  02:26      1.19    0.73    0.69
  WS02004411WS02004412 CONDUIT    536.90     0  02:26      1.07    0.76    0.69
  WS02004412WS02004413 CONDUIT    536.89     0  02:26      1.10    0.36    0.78
  WS02004413WS02003067 CONDUIT    536.69     0  02:27      1.11    0.23    0.59
  WS02006109WS02006110 CONDUIT   1306.78     0  00:00      3.14    2.51    1.00
  WS02006110WS02006113 CONDUIT    565.20     0  02:35      1.37    0.51    1.00
  WS02006111WS02006112 CONDUIT   2307.30     0  00:00      9.18    1.10    0.91
  WS02006112WS02006115 CONDUIT    899.27     0  00:00      1.16    0.53    1.00
  WS02006113WS02006111 CONDUIT   1176.04     0  00:00      2.47    1.41    1.00
  WS02006115WS02006116 CONDUIT   1098.16     0  00:01      1.72    1.41    1.00
  WS02006116WS02004401 CONDUIT   1677.78     0  00:00      2.92    2.31    0.84
  WS02006228WS02006109 CONDUIT    555.96     0  02:35      1.40    2.43    1.00
  WS02006229WS02006228 CONDUIT    552.88     0  02:34      1.24    1.83    1.00
  WS02006230WS02006229 CONDUIT    553.85     0  02:34      1.44   12.33    1.00
  WS02006231WS02006230 CONDUIT    567.49     0  02:34      1.55    8.61    1.00
  WS02006232WS02006231 CONDUIT    571.43     0  02:34      1.49    1.20    1.00
  WS02006234WS02006232 CONDUIT    570.29     0  02:34      1.48    1.15    1.00
  WS02006235WS02006234 CONDUIT    567.01     0  02:34      1.47    5.98    1.00
  WS02006238WS02006235 CONDUIT    423.28     0  02:29      1.45    0.94    1.00
  WS02006239WS02006238 CONDUIT    422.33     0  02:29      1.10    1.35    1.00
  WS02006240WS02006239 CONDUIT    421.11     0  02:29      1.09    1.33    1.00
  WS02006242WS02006240 CONDUIT    418.20     0  02:29      1.09    1.66    1.00
  WS02006243WS02006242 CONDUIT    417.88     0  02:29      1.11    0.89    1.00
  WS02006245WS02006243 CONDUIT    418.47     0  02:29      1.13    1.24    1.00
  WS02006247WS02006245 CONDUIT    418.11     0  02:29      1.09    3.32    1.00
  WS02006248WS02006247 CONDUIT    418.95     0  02:29      1.14    0.91    1.00
  WS02006249WS02006248 CONDUIT    419.82     0  02:29      1.23    2.30    1.00
  WS02006251WS02006249 CONDUIT    427.19     0  01:38      1.52    1.23    1.00
  WS02006252WS02006251 CONDUIT    407.74     0  01:38      5.64    1.50    1.00
  WS02006256WS02006235 CONDUIT    288.54     0  06:15      4.20    3.05    1.00
  WSF200WS02003060     CONDUIT    536.85     0  02:27      2.06    0.12    0.28
  YS02001580YS02001583 CONDUIT    170.44     0  01:33      0.90    0.66    1.00
  YS02001583YS02001586 CONDUIT    204.03     0  01:33      0.92    0.31    1.00
  YS02001586YS02001590 CONDUIT    319.45     0  01:58      1.28    0.56    1.00
  YS02001590YS02001593 CONDUIT    318.60     0  01:46      1.13    2.00    1.00
  YS02001593YS02001596 CONDUIT    318.12     0  01:40      1.72    0.50    1.00
  YS02001596YS02001600 CONDUIT    318.43     0  02:11      1.23    0.62    1.00
  YS02001600YS02001601 CONDUIT    318.56     0  02:08      1.13    0.55    1.00
  YS02001601YS02001602 CONDUIT    579.19     0  01:33      2.05    2.09    1.00
  YS02001602YS02001605 CONDUIT    579.22     0  01:33      2.05   12.26    1.00
  YS02001605YS02001607 CONDUIT    579.12     0  01:33      2.05    3.18    1.00
  YS02001607YS02001610 CONDUIT    550.87     0  01:33      0.72    0.52    1.00
  YS02001610YS02001613 CONDUIT    554.21     0  01:33      0.71    0.64    1.00
  YS02001613YS02001616 CONDUIT    559.19     0  01:33      0.71    0.48    1.00
  YS02001616YS02001619 CONDUIT    512.00     0  01:42      0.69    0.89    1.00
  YS02001619YS02001622 CONDUIT    997.14     0  01:41      1.30    1.47    1.00
  YS02001622YS02001625 CONDUIT    997.07     0  01:41      1.27    0.53    1.00
  YS02001625YS02001629 CONDUIT    956.87     0  01:34      1.22    0.46    1.00
  YS02001629YS02163301 CONDUIT    872.39     0  01:34      1.11    1.07    1.00
  YS02001633YS02163601 CONDUIT   1408.89     0  01:34      1.79    1.48    1.00
  YS02001641YS02001644 CONDUIT   1408.18     0  01:34      1.79    4.55    1.00
  YS02001644YS02001647 CONDUIT   1918.54     0  01:35      2.44    1.13    1.00
  YS02001647YS02001649 CONDUIT   1925.89     0  01:35      2.45    1.02    1.00
  YS02001649YS02001757 CONDUIT   2151.54     0  01:35      2.74    1.31    1.00
  YS02001652YS02001649 CONDUIT   1072.37     0  01:37      1.37    0.53    1.00
  YS02001655YS02001652 CONDUIT   1071.09     0  01:37      1.58    0.52    1.00
  YS02001658YS02001655 CONDUIT   1067.27     0  01:37      2.06    0.45    1.00
  YS02001661YS02001658 CONDUIT   1065.64     0  01:37      2.46    0.42    1.00
  YS02001664YS02001661 CONDUIT   1063.38     0  01:37      2.54    0.33    1.00
  YS02001745YS02001748 CONDUIT    684.83     0  01:38      2.43    0.26    1.00
  YS02001748YS02001751 CONDUIT    685.46     0  01:38      1.91    0.35    1.00
  YS02001751YS02001754 CONDUIT    686.19     0  01:38      1.61    0.33    1.00
  YS02001754YS02001757 CONDUIT    687.57     0  01:36      0.88    0.28    1.00
  YS02001757CaochengTiaoxuchi CONDUIT   3460.22     0  01:37      4.41    1.50    1.00
  YS02001759YS02001757 CONDUIT   1465.96     0  01:36      1.87    1.04    1.00
  YS02001762YS02001759 CONDUIT    709.97     0  01:36      0.90    0.82    1.00
  YS02001765YS02001762 CONDUIT    705.64     0  01:36      0.90    0.66    1.00
  YS02001767YS02001765 CONDUIT    707.04     0  01:36      0.90    0.89    1.00
  YS02001770YS02001767 CONDUIT    708.42     0  01:36      0.92    2.81    1.00
  YS02001774YS02001770 CONDUIT    815.70     0  01:39      1.04    0.52    1.00
  YS02001779YS02001774 CONDUIT    816.52     0  01:39      1.04    0.41    1.00
  YS02001783YS02001784 CONDUIT   1172.55     0  01:36      2.33    1.62    1.00
  YS02001784YS02001785 CONDUIT   1173.87     0  01:36      2.34    2.73    1.00
  YS02001786YS02001788 CONDUIT   1174.55     0  01:37      2.50    2.26    0.89
  YS02001788YS02001790 CONDUIT   1181.28     0  01:36      2.74    0.87    0.84
  YS02001790YS02001791 CONDUIT   1296.66     0  01:39      3.45    1.41    0.70
  YS02001791YS02001793 CONDUIT   1260.32     0  01:40      6.21    0.54    0.46
  YS02001793JiankangQianchi CONDUIT   1222.14     0  01:40      2.25    0.10    0.66
  YS02001882YS02001884 CONDUIT    111.23     0  01:34      0.17    0.13    1.00
  YS02001884YS02001887 CONDUIT    150.06     0  01:34      0.19    0.20    1.00
  YS02001887YS02001890 CONDUIT   1019.68     0  01:38      1.30    1.75    1.00
  YS02001890YS02001895 CONDUIT    613.20     0  01:35      0.78    0.29    1.00
  YS02001895YS02001898 CONDUIT    612.60     0  01:35      0.78    1.06    1.00
  YS02001898YS02001901 CONDUIT    612.30     0  01:35      0.78    0.39    1.00
  YS02001901YS02001904 CONDUIT    611.49     0  01:35      0.78    0.95    1.00
  YS02001904YS02001907 CONDUIT    610.24     0  01:35      0.78    0.21    1.00
  YS02001907YS02006553 CONDUIT    792.18     0  02:04      0.88    0.93    1.00
  YS02001910YS02001907 CONDUIT   1686.23     0  01:40      2.15    0.95    1.00
  YS02001915YS02001910 CONDUIT   1685.92     0  01:40      2.15    0.84    1.00
  YS02001918YS02001915 CONDUIT    771.45     0  01:35      0.98    0.43    1.00
  YS02001920YS02001918 CONDUIT    755.34     0  01:35      0.96    0.73    1.00
  YS02001923YS02001920 CONDUIT    774.21     0  01:35      1.05    0.35    1.00
  YS02001926YS02001923 CONDUIT    990.98     0  01:35      1.43    1.42    1.00
  YS02001929YS02001926 CONDUIT    644.31     0  01:35      1.23    0.31    1.00
  YS02006553YS02006556 CONDUIT    792.56     0  02:04      1.01    0.68    1.00
  YS02006556YS02006558 CONDUIT    794.18     0  02:05      1.01    0.63    1.00
  YS02006558YS02006561 CONDUIT   1172.44     0  01:36      4.15    2.59    1.00
  YS02006561YS02001783 CONDUIT   1172.70     0  01:36      2.33    0.61    1.00
  YS02163301YS02001633 CONDUIT    872.30     0  01:34      1.11    0.82    1.00
  YS02163601YS02164001 CONDUIT   1409.01     0  01:34      1.79    1.25    1.00
  YS02164001YS02001641 CONDUIT   1408.54     0  01:34      1.79    1.92    1.00
  CC-R1                PUMP       683.00     0  01:38              1.00
  CC-R2                PUMP       683.00     0  01:43              1.00
  CC-S1                PUMP       200.00     0  00:34              1.00
  CC-S2                PUMP       200.00     0  01:35              1.00
  JK-R1                PUMP      1000.00     0  01:32              1.00
  JK-R2                PUMP         0.00     0  00:00              0.00
  JK-S                 PUMP       300.00     0  01:30              1.00
  
  
  ***************************
  Flow Classification Summary
  ***************************
  
  -------------------------------------------------------------------------------------
                      Adjusted    ---------- Fraction of Time in Flow Class ---------- 
                       /Actual         Up    Down  Sub   Sup   Up    Down  Norm  Inlet 
  Conduit               Length    Dry  Dry   Dry   Crit  Crit  Crit  Crit  Ltd   Ctrl  
  -------------------------------------------------------------------------------------
  1                       1.00   0.00  0.00  0.00  0.00  1.00  0.00  0.00  0.51  0.00
  WS02003060WS02003069    1.00   0.00  0.00  0.00  0.96  0.04  0.00  0.00  0.71  0.00
  WS02003066WSF200        1.00   0.02  0.00  0.00  0.00  0.98  0.00  0.00  0.75  0.00
  WS02003067WS02003066    1.00   0.01  0.01  0.00  0.98  0.00  0.00  0.00  0.00  0.00
  WS02003069WS02003072    1.00   0.00  0.00  0.00  1.00  0.00  0.00  0.00  0.73  0.00
  WS02003072WS02003073    1.00   0.00  0.00  0.00  0.00  0.00  0.00  1.00  0.00  0.00
  WS02004401WS02004402    1.00   0.00  0.00  0.00  1.00  0.00  0.00  0.00  0.00  0.00
  WS02004402WS02004403    1.00   0.00  0.00  0.00  1.00  0.00  0.00  0.00  0.00  0.00
  WS02004403WS02004404    1.00   0.00  0.00  0.00  1.00  0.00  0.00  0.00  0.00  0.00
  WS02004404WS02004405    1.00   0.00  0.00  0.00  1.00  0.00  0.00  0.00  0.00  0.00
  WS02004405WS02004406    1.00   0.00  0.00  0.00  1.00  0.00  0.00  0.00  0.00  0.00
  WS02004406WS02004407    1.00   0.00  0.00  0.00  1.00  0.00  0.00  0.00  0.00  0.00
  WS02004407WS02004409    1.00   0.00  0.00  0.00  0.99  0.00  0.00  0.00  0.99  0.00
  WS02004409WS02004410    1.00   0.00  0.00  0.00  1.00  0.00  0.00  0.00  0.00  0.00
  WS02004410WS02004411    1.00   0.00  0.00  0.00  1.00  0.00  0.00  0.00  0.00  0.00
  WS02004411WS02004412    1.00   0.00  0.00  0.00  0.99  0.00  0.00  0.00  0.00  0.00
  WS02004412WS02004413    1.00   0.01  0.00  0.00  0.99  0.00  0.00  0.00  0.00  0.00
  WS02004413WS02003067    1.00   0.01  0.00  0.00  0.00  0.00  0.99  0.00  0.00  0.00
  WS02006109WS02006110    1.00   0.00  0.00  0.00  1.00  0.00  0.00  0.00  0.00  0.00
  WS02006110WS02006113    1.00   0.00  0.00  0.00  1.00  0.00  0.00  0.00  0.00  0.00
  WS02006111WS02006112    1.00   0.00  0.00  0.00  1.00  0.00  0.00  0.00  1.00  0.00
  WS02006112WS02006115    1.00   0.00  0.00  0.00  1.00  0.00  0.00  0.00  0.00  0.00
  WS02006113WS02006111    1.00   0.00  0.00  0.00  0.00  1.00  0.00  0.00  0.10  0.00
  WS02006115WS02006116    1.00   0.00  0.00  0.00  1.00  0.00  0.00  0.00  0.00  0.00
  WS02006116WS02004401    1.00   0.00  0.00  0.00  1.00  0.00  0.00  0.00  0.00  0.00
  WS02006228WS02006109    1.00   0.00  0.00  0.00  1.00  0.00  0.00  0.00  0.00  0.00
  WS02006229WS02006228    1.00   0.00  0.00  0.00  1.00  0.00  0.00  0.00  0.00  0.00
  WS02006230WS02006229    1.00   0.00  0.00  0.00  1.00  0.00  0.00  0.00  0.02  0.00
  WS02006231WS02006230    1.00   0.00  0.00  0.00  0.42  0.00  0.58  0.00  0.00  0.00
  WS02006232WS02006231    1.00   0.00  0.00  0.00  0.98  0.00  0.02  0.00  0.00  0.00
  WS02006234WS02006232    1.00   0.00  0.00  0.00  0.99  0.00  0.00  0.00  0.37  0.00
  WS02006235WS02006234    1.00   0.05  0.00  0.00  0.70  0.00  0.24  0.00  0.00  0.00
  WS02006238WS02006235    1.00   0.01  0.00  0.00  0.99  0.00  0.00  0.00  0.01  0.00
  WS02006239WS02006238    1.00   0.05  0.00  0.00  0.95  0.00  0.00  0.01  0.40  0.00
  WS02006240WS02006239    1.00   0.05  0.00  0.00  0.64  0.00  0.00  0.31  0.02  0.00
  WS02006242WS02006240    1.00   0.03  0.02  0.00  0.91  0.00  0.04  0.00  0.01  0.00
  WS02006243WS02006242    1.00   0.02  0.00  0.00  0.94  0.00  0.00  0.03  0.58  0.00
  WS02006245WS02006243    1.00   0.02  0.00  0.00  0.68  0.00  0.00  0.30  0.00  0.00
  WS02006247WS02006245    1.00   0.01  0.00  0.00  0.94  0.00  0.00  0.04  0.00  0.00
  WS02006248WS02006247    1.00   0.01  0.00  0.00  0.95  0.00  0.00  0.03  0.18  0.00
  WS02006249WS02006248    1.00   0.00  0.01  0.00  0.59  0.00  0.40  0.00  0.00  0.00
  WS02006251WS02006249    1.00   0.00  0.00  0.00  1.00  0.00  0.00  0.00  0.68  0.00
  WS02006252WS02006251    1.00   0.04  0.36  0.00  0.33  0.00  0.28  0.00  0.00  0.00
  WS02006256WS02006235    1.00   0.01  0.00  0.00  0.98  0.01  0.00  0.00  0.01  0.00
  WSF200WS02003060        1.00   0.00  0.02  0.00  0.47  0.52  0.00  0.00  0.69  0.00
  YS02001580YS02001583    1.00   0.23  0.39  0.00  0.37  0.00  0.00  0.00  0.67  0.00
  YS02001583YS02001586    1.00   0.25  0.30  0.00  0.44  0.00  0.01  0.00  0.68  0.00
  YS02001586YS02001590    1.00   0.07  0.00  0.00  0.66  0.02  0.00  0.24  0.33  0.00
  YS02001590YS02001593    1.00   0.07  0.00  0.00  0.28  0.00  0.64  0.00  0.00  0.00
  YS02001593YS02001596    1.00   0.08  0.00  0.00  0.32  0.02  0.00  0.58  0.02  0.00
  YS02001596YS02001600    1.00   0.08  0.00  0.00  0.43  0.02  0.00  0.47  0.03  0.00
  YS02001600YS02001601    1.00   0.07  0.00  0.00  0.92  0.00  0.00  0.00  0.59  0.00
  YS02001601YS02001602    1.00   0.07  0.00  0.00  0.92  0.00  0.00  0.00  0.00  0.00
  YS02001602YS02001605    1.00   0.08  0.00  0.00  0.92  0.00  0.00  0.00  0.00  0.00
  YS02001605YS02001607    1.00   0.08  0.00  0.00  0.92  0.00  0.00  0.00  0.00  0.00
  YS02001607YS02001610    1.00   0.08  0.00  0.00  0.92  0.00  0.00  0.00  0.01  0.00
  YS02001610YS02001613    1.00   0.07  0.00  0.00  0.93  0.00  0.00  0.00  0.00  0.00
  YS02001613YS02001616    1.00   0.07  0.00  0.00  0.93  0.00  0.00  0.00  0.00  0.00
  YS02001616YS02001619    1.00   0.07  0.00  0.00  0.93  0.00  0.00  0.00  0.00  0.00
  YS02001619YS02001622    1.00   0.07  0.00  0.00  0.93  0.00  0.00  0.00  0.28  0.00
  YS02001622YS02001625    1.00   0.07  0.00  0.00  0.93  0.00  0.00  0.00  0.03  0.00
  YS02001625YS02001629    1.00   0.07  0.05  0.00  0.36  0.00  0.52  0.00  0.00  0.00
  YS02001629YS02163301    1.00   0.08  0.01  0.00  0.91  0.00  0.00  0.00  0.00  0.00
  YS02001633YS02163601    1.00   0.00  0.00  0.00  0.99  0.00  0.00  0.00  0.14  0.00
  YS02001641YS02001644    1.00   0.00  0.00  0.00  1.00  0.00  0.00  0.00  0.00  0.00
  YS02001644YS02001647    1.00   0.00  0.10  0.00  0.90  0.00  0.00  0.00  0.00  0.00
  YS02001647YS02001649    1.00   0.00  0.10  0.00  0.69  0.21  0.00  0.00  0.56  0.00
  YS02001649YS02001757    1.00   0.00  0.00  0.00  0.79  0.21  0.00  0.00  0.45  0.00
  YS02001652YS02001649    1.00   0.00  0.00  0.00  0.94  0.06  0.00  0.00  0.72  0.00
  YS02001655YS02001652    1.00   0.00  0.00  0.00  0.37  0.02  0.00  0.62  0.03  0.00
  YS02001658YS02001655    1.00   0.00  0.08  0.00  0.62  0.30  0.00  0.00  0.65  0.00
  YS02001661YS02001658    1.00   0.08  0.00  0.00  0.49  0.43  0.00  0.00  0.69  0.00
  YS02001664YS02001661    1.00   0.07  0.00  0.00  0.70  0.23  0.00  0.00  0.84  0.00
  YS02001745YS02001748    1.00   0.00  0.00  0.00  0.25  0.01  0.00  0.74  0.05  0.00
  YS02001748YS02001751    1.00   0.00  0.00  0.00  0.73  0.27  0.00  0.00  0.76  0.00
  YS02001751YS02001754    1.00   0.00  0.00  0.00  0.34  0.01  0.00  0.65  0.02  0.00
  YS02001754YS02001757    1.00   0.00  0.00  0.00  1.00  0.00  0.00  0.00  0.79  0.00
  YS02001757CaochengTiaoxuchi    1.00   0.00  0.00  0.00  1.00  0.00  0.00  0.00  0.64  0.00
  YS02001759YS02001757    1.00   0.00  0.00  0.00  1.00  0.00  0.00  0.00  0.68  0.00
  YS02001762YS02001759    1.00   0.00  0.00  0.00  1.00  0.00  0.00  0.00  0.03  0.00
  YS02001765YS02001762    1.00   0.00  0.00  0.00  1.00  0.00  0.00  0.00  0.71  0.00
  YS02001767YS02001765    1.00   0.00  0.00  0.00  1.00  0.00  0.00  0.00  0.00  0.00
  YS02001770YS02001767    1.00   0.00  0.00  0.00  1.00  0.00  0.00  0.00  0.00  0.00
  YS02001774YS02001770    1.00   0.00  0.08  0.00  0.83  0.00  0.09  0.00  0.02  0.00
  YS02001779YS02001774    1.00   0.00  0.00  0.00  1.00  0.00  0.00  0.00  0.76  0.00
  YS02001783YS02001784    1.00   0.00  0.12  0.00  0.88  0.00  0.00  0.00  0.55  0.00
  YS02001784YS02001785    1.00   0.00  0.00  0.00  1.00  0.00  0.00  0.00  0.15  0.00
  YS02001786YS02001788    1.00   0.00  0.00  0.00  0.62  0.38  0.00  0.00  0.00  0.00
  YS02001788YS02001790    1.00   0.00  0.00  0.00  0.20  0.80  0.00  0.00  0.79  0.00
  YS02001790YS02001791    1.00   0.00  0.00  0.00  0.01  0.99  0.00  0.00  0.17  0.00
  YS02001791YS02001793    1.00   0.00  0.00  0.00  0.00  1.00  0.00  0.00  0.02  0.00
  YS02001793JiankangQianchi    1.00   0.00  0.00  0.00  1.00  0.00  0.00  0.00  0.92  0.00
  YS02001882YS02001884    1.00   0.09  0.00  0.00  0.91  0.00  0.00  0.00  0.00  0.00
  YS02001884YS02001887    1.00   0.03  0.03  0.00  0.93  0.00  0.00  0.00  0.00  0.00
  YS02001887YS02001890    1.00   0.00  0.00  0.00  0.98  0.00  0.02  0.00  0.00  0.00
  YS02001890YS02001895    1.00   0.00  0.09  0.00  0.91  0.00  0.00  0.00  0.00  0.00
  YS02001895YS02001898    1.00   0.09  0.00  0.00  0.87  0.00  0.04  0.00  0.00  0.00
  YS02001898YS02001901    1.00   0.09  0.00  0.00  0.91  0.00  0.00  0.00  0.01  0.00
  YS02001901YS02001904    1.00   0.09  0.00  0.00  0.91  0.00  0.00  0.00  0.00  0.00
  YS02001904YS02001907    1.00   0.00  0.09  0.00  0.91  0.00  0.00  0.00  0.00  0.00
  YS02001907YS02006553    1.00   0.00  0.01  0.00  0.99  0.00  0.00  0.00  0.00  0.00
  YS02001910YS02001907    1.00   0.00  0.00  0.00  0.98  0.00  0.00  0.02  0.12  0.00
  YS02001915YS02001910    1.00   0.00  0.00  0.00  0.98  0.02  0.00  0.00  0.14  0.00
  YS02001918YS02001915    1.00   0.00  0.00  0.00  0.99  0.01  0.00  0.00  0.73  0.00
  YS02001920YS02001918    1.00   0.00  0.00  0.00  1.00  0.00  0.00  0.00  0.01  0.00
  YS02001923YS02001920    1.00   0.00  0.00  0.00  1.00  0.00  0.00  0.00  0.91  0.00
  YS02001926YS02001923    1.00   0.00  0.04  0.00  0.13  0.00  0.83  0.00  0.00  0.00
  YS02001929YS02001926    1.00   0.00  0.07  0.00  0.93  0.00  0.00  0.00  0.80  0.00
  YS02006553YS02006556    1.00   0.01  0.00  0.00  0.99  0.00  0.00  0.00  0.03  0.00
  YS02006556YS02006558    1.00   0.00  0.00  0.00  1.00  0.00  0.00  0.00  0.00  0.00
  YS02006558YS02006561    1.00   0.12  0.00  0.00  0.12  0.76  0.00  0.00  0.18  0.00
  YS02006561YS02001783    1.00   0.12  0.00  0.00  0.19  0.70  0.00  0.00  0.67  0.00
  YS02163301YS02001633    1.00   0.00  0.08  0.00  0.92  0.00  0.00  0.00  0.00  0.00
  YS02163601YS02164001    1.00   0.00  0.05  0.00  0.95  0.00  0.00  0.00  0.00  0.00
  YS02164001YS02001641    1.00   0.01  0.04  0.00  0.95  0.00  0.00  0.00  0.05  0.00
  
  
  *************************
  Conduit Surcharge Summary
  *************************
  
  ----------------------------------------------------------------------------
                                                           Hours        Hours 
                         --------- Hours Full --------   Above Full   Capacity
  Conduit                Both Ends  Upstream  Dnstream   Normal Flow   Limited
  ----------------------------------------------------------------------------
  WS02003072WS02003073        0.01      0.01      0.01      1.74         0.01
  WS02004401WS02004402        0.01      0.01      0.01      0.01         0.01
  WS02004402WS02004403        0.01      0.01      0.01      0.01         0.01
  WS02004404WS02004405        0.01      0.01      0.01      2.56         0.01
  WS02004405WS02004406        0.01      0.01      0.01      1.58         0.01
  WS02006109WS02006110        1.63      1.64      2.02      1.66         0.01
  WS02006110WS02006113        0.01      0.01      2.01      0.01         0.01
  WS02006111WS02006112        0.01      0.01      2.09      0.01         0.01
  WS02006112WS02006115        0.01      0.01      1.60      0.01         0.01
  WS02006113WS02006111        0.01      0.01      0.01      0.01         0.01
  WS02006115WS02006116        0.01      0.01      0.01      0.01         0.01
  WS02006116WS02004401        0.01      0.01      0.01      0.01         0.01
  WS02006228WS02006109        1.98      2.03      1.98      2.17         1.98
  WS02006229WS02006228        1.97      1.99      1.97      2.11         1.97
  WS02006230WS02006229        2.06      2.08      2.06      2.79         2.06
  WS02006231WS02006230        1.62      1.62      1.66      2.61         0.01
  WS02006232WS02006231        1.66      1.66      2.02      1.67         0.01
  WS02006234WS02006232        1.96      1.96      2.02      1.67         1.66
  WS02006235WS02006234        1.73      1.74      1.97      2.50         0.01
  WS02006238WS02006235        1.99      1.99      2.02      0.01         0.01
  WS02006239WS02006238        1.98      1.98      2.00      1.98         1.81
  WS02006240WS02006239        1.97      1.97      1.97      1.97         1.68
  WS02006242WS02006240        1.97      1.97      1.99      1.99         0.01
  WS02006243WS02006242        1.97      1.97      1.98      0.01         0.01
  WS02006245WS02006243        1.96      1.96      1.96      0.31         0.57
  WS02006247WS02006245        1.96      1.96      1.96      2.27         1.96
  WS02006248WS02006247        1.96      1.96      1.96      0.01         0.01
  WS02006249WS02006248        1.95      1.95      1.95      2.26         0.01
  WS02006251WS02006249        1.95      1.95      1.95      1.97         1.94
  WS02006252WS02006251        1.99      1.99      2.00      1.99         0.01
  WS02006256WS02006235        2.55      2.56      3.80      2.00         0.01
  YS02001580YS02001583        0.80      0.80      0.87      0.01         0.01
  YS02001583YS02001586        0.81      0.81      0.99      0.01         0.01
  YS02001586YS02001590        1.00      1.00      1.07      0.01         0.01
  YS02001590YS02001593        1.08      1.08      1.09      1.14         0.01
  YS02001593YS02001596        1.09      1.09      1.20      0.01         0.01
  YS02001596YS02001600        1.25      1.25      1.37      0.01         0.01
  YS02001600YS02001601        1.43      1.43      1.68      0.01         0.01
  YS02001601YS02001602        1.60      1.60      1.70      1.34         0.01
  YS02001602YS02001605        1.57      1.57      1.60      2.35         0.01
  YS02001605YS02001607        1.53      1.57      1.53      1.65         1.53
  YS02001607YS02001610        1.09      1.09      1.12      0.01         0.01
  YS02001610YS02001613        1.08      1.08      1.12      0.01         0.01
  YS02001613YS02001616        1.04      1.04      1.08      0.01         0.01
  YS02001616YS02001619        1.02      1.02      1.04      0.01         0.06
  YS02001619YS02001622        1.02      1.02      1.02      1.01         0.90
  YS02001622YS02001625        1.02      1.02      1.23      0.01         0.01
  YS02001625YS02001629        0.96      0.96      1.23      0.01         0.01
  YS02001629YS02163301        1.23      1.23      1.24      0.01         0.12
  YS02001633YS02163601        1.26      1.26      1.30      0.21         0.25
  YS02001641YS02001644        1.21      1.23      1.21      1.72         1.19
  YS02001644YS02001647        0.99      0.99      1.21      0.03         0.01
  YS02001647YS02001649        0.99      0.99      1.16      0.01         0.01
  YS02001649YS02001757        1.16      1.16      1.25      0.04         0.03
  YS02001652YS02001649        0.96      0.96      1.16      0.01         0.01
  YS02001655YS02001652        0.68      0.68      0.93      0.01         0.01
  YS02001658YS02001655        0.35      0.35      0.68      0.01         0.01
  YS02001661YS02001658        0.11      0.11      0.35      0.01         0.01
  YS02001664YS02001661        0.01      0.01      0.15      0.01         0.01
  YS02001745YS02001748        0.01      0.01      0.26      0.01         0.01
  YS02001748YS02001751        0.31      0.31      0.53      0.01         0.01
  YS02001751YS02001754        0.53      0.53      0.83      0.01         0.01
  YS02001754YS02001757        0.89      0.89      1.25      0.01         0.01
  YS02001757CaochengTiaoxuchi        1.24      1.25      1.73      0.42         0.40
  YS02001759YS02001757        1.14      1.14      1.25      0.02         0.04
  YS02001762YS02001759        1.11      1.11      1.14      0.01         0.02
  YS02001765YS02001762        1.06      1.06      1.11      0.01         0.01
  YS02001767YS02001765        1.01      1.01      1.06      0.01         0.02
  YS02001770YS02001767        1.00      1.00      1.01      0.67         0.65
  YS02001774YS02001770        0.97      0.97      1.09      0.01         0.01
  YS02001779YS02001774        0.80      0.80      1.09      0.01         0.01
  YS02001783YS02001784        0.65      0.68      0.65      0.82         0.65
  YS02001784YS02001785        0.54      0.65      0.54      1.11         0.54
  YS02001786YS02001788        0.01      0.54      0.01      0.95         0.01
  YS02001790YS02001791        0.01      0.01      0.01      0.64         0.01
  YS02001793JiankangQianchi        0.01      0.01      7.94      0.01         0.01
  YS02001882YS02001884        0.61      0.61      0.62      0.01         0.01
  YS02001884YS02001887        0.65      0.65      0.66      0.01         0.01
  YS02001887YS02001890        0.68      0.68      0.69      0.19         0.01
  YS02001890YS02001895        0.60      0.60      0.71      0.01         0.01
  YS02001895YS02001898        0.60      0.60      0.60      0.01         0.01
  YS02001898YS02001901        0.61      0.61      0.65      0.01         0.01
  YS02001901YS02001904        0.64      0.64      0.65      0.01         0.01
  YS02001904YS02001907        0.64      0.64      0.92      0.01         0.01
  YS02001907YS02006553        1.13      1.13      1.21      0.01         0.01
  YS02001910YS02001907        0.71      0.71      0.89      0.01         0.01
  YS02001915YS02001910        0.61      0.61      0.71      0.01         0.01
  YS02001918YS02001915        0.52      0.52      0.61      0.01         0.01
  YS02001920YS02001918        0.52      0.52      0.54      0.01         0.01
  YS02001923YS02001920        0.48      0.48      0.54      0.01         0.01
  YS02001926YS02001923        0.19      0.19      0.22      0.01         0.01
  YS02001929YS02001926        0.02      0.02      0.22      0.01         0.01
  YS02006553YS02006556        0.79      0.79      0.92      0.01         0.01
  YS02006556YS02006558        0.86      0.86      0.95      0.01         0.01
  YS02006558YS02006561        0.56      0.79      0.56      1.05         0.56
  YS02006561YS02001783        0.49      0.49      0.68      0.01         0.01
  YS02163301YS02001633        1.24      1.24      1.28      0.01         0.01
  YS02163601YS02164001        1.22      1.22      1.30      0.03         0.01
  YS02164001YS02001641        1.22      1.22      1.23      0.79         0.73
  
  
  ***************
  Pumping Summary
  ***************
  
  ---------------------------------------------------------------------------------------------------------
                                                  Min       Avg       Max     Total     Power    % Time Off
                        Percent   Number of      Flow      Flow      Flow    Volume     Usage    Pump Curve
  Pump                 Utilized   Start-Ups       LPS       LPS       LPS  10^6 ltr     Kw-hr    Low   High
  ---------------------------------------------------------------------------------------------------------
  CC-R1                   24.14           1      0.00    683.00    683.00     4.749     90.26    0.0   13.4
  CC-R2                   23.24           1      0.00    683.00    683.00     4.571     86.95    0.0   14.0
  CC-S1                   28.71           7      0.00    200.00    200.00     1.654      8.88    0.0    0.0
  CC-S2                   24.86           1      0.00    200.00    200.00     1.432      7.51    0.0    0.0
  JK-R1                    9.15         107      0.00   1000.00   1000.00     2.635     34.74    0.0    0.0
  JK-R2                    0.00           0      0.00      0.00      0.00     0.000      0.00    0.0    0.0
  JK-S                    24.84           7      0.00    300.00    300.00     2.146     28.13    0.0    0.0
  

  Analysis begun on:  Wed Aug  9 17:01:12 2023
  Analysis ended on:  Wed Aug  9 17:01:50 2023
  Total elapsed time: 00:00:38