
  OWA STORM WATER MANAGEMENT MODEL - VERSION v5.1.14 (OWA 2022-07-31)
  --------------------------------------------------------------

  WARNING 04: minimum elevation drop used for Conduit WS02004404WS02004405
  WARNING 03: negative offset ignored for Link YS02001904YS02001907
  
  *********************************************************
  NOTE: The summary statistics displayed in this report are
  based on results found at every computational time step,  
  not just on results from each reporting time step.
  *********************************************************
  
  ****************
  Analysis Options
  ****************
  Flow Units ............... LPS
  Process Models:
    Rainfall/Runoff ........ YES
    RDII ................... NO
    Snowmelt ............... NO
    Groundwater ............ NO
    Flow Routing ........... YES
    Ponding Allowed ........ NO
    Water Quality .......... NO
  Infiltration Method ...... HORTON
  Flow Routing Method ...... DYNWAVE
  Surcharge Method ......... EXTRAN
  Starting Date ............ 08/28/2015 08:00:00
  Ending Date .............. 08/28/2015 16:00:00
  Antecedent Dry Days ...... 8.0
  Report Time Step ......... 00:01:00
  Wet Time Step ............ 00:01:00
  Dry Time Step ............ 00:01:00
  Routing Time Step ........ 30.00 sec
  Variable Time Step ....... YES
  Maximum Trials ........... 8
  Number of Threads ........ 4
  Head Tolerance ........... 0.001500 m
  
  
  **************************        Volume         Depth
  Runoff Quantity Continuity     hectare-m            mm
  **************************     ---------       -------
  Total Precipitation ......         2.696        81.291
  Evaporation Loss .........         0.000         0.000
  Infiltration Loss ........         0.100         3.025
  Surface Runoff ...........         2.564        77.300
  Final Storage ............         0.033         0.995
  Continuity Error (%) .....        -0.034
  
  
  **************************        Volume        Volume
  Flow Routing Continuity        hectare-m      10^6 ltr
  **************************     ---------     ---------
  Dry Weather Inflow .......         0.000         0.000
  Wet Weather Inflow .......         2.565        25.654
  Groundwater Inflow .......         0.000         0.000
  RDII Inflow ..............         0.000         0.000
  External Inflow ..........         0.083         0.834
  External Outflow .........         1.707        17.071
  Flooding Loss ............         0.983         9.831
  Evaporation Loss .........         0.000         0.000
  Exfiltration Loss ........         0.000         0.000
  Initial Stored Volume ....         0.243         2.431
  Final Stored Volume ......         0.234         2.341
  Continuity Error (%) .....        -1.121
  
  
  *************************
  Highest Continuity Errors
  *************************
  Node YS02001583 (-14.30%)
  Node YS02001884 (3.75%)
  Node WS02006110 (-1.27%)
  
  
  ***************************
  Time-Step Critical Elements
  ***************************
  Link WS02004404WS02004405 (45.86%)
  Link YS02001791YS02001793 (11.88%)
  Link WS02006252WS02006251 (11.70%)
  Link WS02003066WSF200 (6.82%)
  Link YS02006556YS02006558 (6.48%)
  
  
  ********************************
  Highest Flow Instability Indexes
  ********************************
  Link WS02006113WS02006111 (30)
  Link WS02006238WS02006235 (28)
  Link WS02006111WS02006112 (26)
  Link WS02006235WS02006234 (23)
  Link YS02001602YS02001605 (22)
  
  
  *************************
  Routing Time Step Summary
  *************************
  Minimum Time Step           :     0.00 sec
  Average Time Step           :     3.35 sec
  Maximum Time Step           :    30.00 sec
  Percent in Steady State     :     0.00
  Average Iterations per Step :     3.64
  Percent Not Converging      :    17.98
  
  
  ***************************
  Subcatchment Runoff Summary
  ***************************
  
  ------------------------------------------------------------------------------------------------------------------------------
                            Total      Total      Total      Total     Imperv       Perv      Total       Total     Peak  Runoff
                           Precip      Runon       Evap      Infil     Runoff     Runoff     Runoff      Runoff   Runoff   Coeff
  Subcatchment                 mm         mm         mm         mm         mm         mm         mm    10^6 ltr      LPS
  ------------------------------------------------------------------------------------------------------------------------------
  sub60                     81.29       0.00       0.00       1.85      70.35       7.91      78.26        1.03   633.18   0.963
  sub61                     81.29       0.00       0.00       2.67      66.36      11.15      77.51        1.42   870.88   0.953
  sub62                     81.29       0.00       0.00       1.23      73.52       5.28      78.79        2.16  1220.92   0.969
  sub63                     81.29       0.00       0.00       4.89      56.76      18.70      75.46        1.71   948.69   0.928
  sub64                     81.29       0.00       0.00       2.48      67.90       9.72      77.63        1.86   975.23   0.955
  sub65                     81.29       0.00       0.00       2.14      69.48       8.43      77.91        2.14  1084.15   0.958
  sub66                     81.29       0.00       0.00       5.96      56.65      17.62      74.27        3.46  1379.27   0.914
  sub67                     81.29       0.00       0.00       1.19      73.56       5.32      78.88        1.47   976.69   0.970
  sub68                     81.29       0.00       0.00       2.21      68.74       9.17      77.91        2.14  1254.15   0.958
  sub69                     81.29       0.00       0.00       1.96      69.00      10.24      79.23        2.93  1459.46   0.975
  sub70                     81.29       0.00       0.00       6.41      53.49      21.23      74.73        2.16   781.26   0.919
  sub71                     81.29       0.00       0.00       1.26      73.47       5.25      78.72        2.06  1056.31   0.968
  sub72                     81.29       0.00       0.00       1.12      74.21       4.57      78.78        1.08   503.04   0.969
  
  
  ******************
  Node Depth Summary
  ******************
  
  ---------------------------------------------------------------------------------
                                 Average  Maximum  Maximum  Time of Max    Reported
                                   Depth    Depth      HGL   Occurrence   Max Depth
  Node                 Type       Meters   Meters   Meters  days hr:min      Meters
  ---------------------------------------------------------------------------------
  WS02003060           JUNCTION     0.22     0.38     5.32     0  02:56        0.38
  WS02003066           JUNCTION     0.18     0.30     5.85     0  02:55        0.30
  WS02003067           JUNCTION     0.49     0.70     6.02     0  02:55        0.70
  WS02003069           JUNCTION     0.24     0.43     5.01     0  02:57        0.43
  WS02003072           JUNCTION     0.30     0.50     4.87     0  02:57        0.50
  WS02003073           JUNCTION     0.17     0.30     4.36     0  02:58        0.30
  WS02004401           JUNCTION     0.58     0.85     6.85     0  02:53        0.85
  WS02004402           JUNCTION     0.61     0.88     6.84     0  02:53        0.88
  WS02004403           JUNCTION     0.64     0.89     6.82     0  02:53        0.89
  WS02004404           JUNCTION     0.71     0.96     6.81     0  02:53        0.96
  WS02004405           JUNCTION     0.71     0.96     6.81     0  02:53        0.96
  WS02004406           JUNCTION     0.72     0.96     6.79     0  02:53        0.96
  WS02004407           JUNCTION     0.16     0.30     6.61     0  02:54        0.30
  WS02004409           JUNCTION     0.37     0.67     6.44     0  02:54        0.67
  WS02004410           JUNCTION     0.40     0.68     6.40     0  02:54        0.68
  WS02004411           JUNCTION     0.42     0.69     6.37     0  02:55        0.69
  WS02004412           JUNCTION     0.44     0.70     6.34     0  02:55        0.70
  WS02004413           JUNCTION     0.61     0.86     6.33     0  02:55        0.86
  WS02006109           JUNCTION     0.63     1.24     7.85     0  00:00        0.97
  WS02006110           JUNCTION     0.63     1.45     8.04     0  00:00        0.93
  WS02006111           JUNCTION     0.16     1.67     8.37     0  00:00        0.56
  WS02006112           JUNCTION     0.74     2.68     8.56     0  00:00        1.29
  WS02006113           JUNCTION     0.25     1.50     8.40     0  00:00        0.45
  WS02006115           JUNCTION     0.46     1.69     7.83     0  00:00        0.86
  WS02006116           JUNCTION     0.55     1.11     7.15     0  00:00        0.83
  WS02006228           JUNCTION     0.63     1.64     8.29     0  00:00        1.02
  WS02006229           JUNCTION     0.60     1.48     8.18     0  01:49        1.48
  WS02006230           JUNCTION     0.62     1.21     7.95     0  02:52        1.10
  WS02006231           JUNCTION     0.41     0.97     8.09     0  02:52        0.85
  WS02006232           JUNCTION     0.54     1.25     8.29     0  02:52        1.21
  WS02006234           JUNCTION     0.49     1.44     8.60     0  02:52        1.44
  WS02006235           JUNCTION     0.54     1.62     8.79     0  02:52        1.62
  WS02006238           JUNCTION     0.57     1.67     8.82     0  02:52        1.67
  WS02006239           JUNCTION     0.54     2.03     9.24     0  03:19        2.03
  WS02006240           JUNCTION     0.52     2.10     9.39     0  03:19        2.10
  WS02006242           JUNCTION     0.58     1.55     8.82     0  03:19        1.55
  WS02006243           JUNCTION     0.51     1.48     8.90     0  03:19        1.48
  WS02006245           JUNCTION     0.51     1.56     9.04     0  03:19        1.56
  WS02006247           JUNCTION     0.53     1.47     8.97     0  01:49        1.47
  WS02006248           JUNCTION     0.50     1.10     8.69     0  01:49        1.10
  WS02006249           JUNCTION     0.52     1.09     8.69     0  01:30        1.09
  WS02006251           JUNCTION     0.52     1.45     9.12     0  01:30        1.12
  WS02006252           JUNCTION     0.33     1.50     9.74     0  01:27        0.68
  WS02006256           JUNCTION     1.20     2.35     9.28     0  01:25        2.35
  WSF200               JUNCTION     0.15     0.29     5.52     0  02:56        0.29
  YS02001580           JUNCTION     0.18     1.05     9.59     0  01:24        0.78
  YS02001583           JUNCTION     0.22     1.14     9.64     0  01:24        0.82
  YS02001586           JUNCTION     0.34     1.13     9.30     0  01:23        1.13
  YS02001590           JUNCTION     0.47     1.40     9.26     0  01:23        1.40
  YS02001593           JUNCTION     0.40     1.46     9.32     0  01:23        1.34
  YS02001596           JUNCTION     0.54     1.80     9.22     0  01:22        1.65
  YS02001600           JUNCTION     0.65     1.87     9.00     0  01:22        1.87
  YS02001601           JUNCTION     0.85     2.06     8.90     0  01:22        2.06
  YS02001602           JUNCTION     0.74     1.87     8.77     0  01:24        1.87
  YS02001605           JUNCTION     0.69     1.78     8.68     0  01:24        1.78
  YS02001607           JUNCTION     0.64     1.68     8.53     0  01:24        1.68
  YS02001610           JUNCTION     0.68     1.68     8.48     0  01:24        1.68
  YS02001613           JUNCTION     0.64     1.70     8.54     0  01:24        1.70
  YS02001616           JUNCTION     0.57     1.61     8.52     0  01:24        1.61
  YS02001619           JUNCTION     0.55     1.61     8.54     0  01:24        1.61
  YS02001622           JUNCTION     0.54     1.62     8.52     0  01:24        1.58
  YS02001625           JUNCTION     0.79     1.78     8.38     0  01:24        1.78
  YS02001629           JUNCTION     0.69     1.85     8.40     0  01:24        1.85
  YS02001633           JUNCTION     0.77     2.08     8.53     0  01:25        2.08
  YS02001641           JUNCTION     0.74     2.10     8.54     0  01:53        2.10
  YS02001644           JUNCTION     0.73     1.92     8.35     0  01:25        1.92
  YS02001647           JUNCTION     0.51     1.90     8.51     0  01:25        1.79
  YS02001649           JUNCTION     0.59     2.05     8.44     0  01:25        2.05
  YS02001652           JUNCTION     0.47     2.16     8.76     0  01:25        2.13
  YS02001655           JUNCTION     0.37     2.20     9.05     0  01:25        1.74
  YS02001658           JUNCTION     0.27     2.30     9.44     0  01:25        1.52
  YS02001661           JUNCTION     0.25     2.46     9.86     0  01:26        1.33
  YS02001664           JUNCTION     0.10     2.31    10.23     0  01:26        0.89
  YS02001745           JUNCTION     0.14     2.35     9.87     0  01:26        0.82
  YS02001748           JUNCTION     0.26     2.27     9.35     0  01:26        1.26
  YS02001751           JUNCTION     0.33     2.20     9.08     0  01:26        1.45
  YS02001754           JUNCTION     0.42     2.20     8.81     0  01:25        1.70
  YS02001757           JUNCTION     0.61     2.21     8.47     0  01:25        2.04
  YS02001759           JUNCTION     0.56     2.21     8.57     0  01:25        2.04
  YS02001762           JUNCTION     0.54     2.15     8.55     0  01:25        2.01
  YS02001765           JUNCTION     0.52     2.10     8.55     0  01:25        2.10
  YS02001767           JUNCTION     0.51     2.03     8.52     0  01:25        2.03
  YS02001770           JUNCTION     0.53     1.95     8.44     0  01:25        1.95
  YS02001774           JUNCTION     0.59     2.05     8.47     0  01:25        2.01
  YS02001779           JUNCTION     0.40     1.68     8.37     0  01:25        1.68
  YS02001783           JUNCTION     0.35     2.00     8.14     0  01:49        2.00
  YS02001784           JUNCTION     0.35     2.11     8.18     0  01:49        2.11
  YS02001786           JUNCTION     0.28     2.01     8.04     0  01:25        0.87
  YS02001788           JUNCTION     0.21     0.65     6.62     0  01:25        0.62
  YS02001790           JUNCTION     0.24     0.72     6.37     0  01:31        0.72
  YS02001791           JUNCTION     0.15     0.44     5.91     0  01:28        0.43
  YS02001793           JUNCTION     0.08     0.31     5.14     0  01:25        0.31
  YS02001882           JUNCTION     0.45     1.83     8.55     0  01:24        1.81
  YS02001884           JUNCTION     0.54     1.93     8.55     0  01:24        1.82
  YS02001887           JUNCTION     0.61     1.96     8.50     0  01:24        1.93
  YS02001890           JUNCTION     0.64     1.81     8.32     0  01:24        1.81
  YS02001895           JUNCTION     0.41     1.75     8.50     0  01:24        1.57
  YS02001898           JUNCTION     0.42     1.77     8.51     0  01:24        1.56
  YS02001901           JUNCTION     0.53     1.87     8.48     0  01:24        1.68
  YS02001904           JUNCTION     0.51     1.85     8.48     0  01:49        1.85
  YS02001907           JUNCTION     0.81     1.96     8.25     0  01:24        1.96
  YS02001910           JUNCTION     0.63     2.04     8.55     0  01:25        1.93
  YS02001915           JUNCTION     0.45     2.00     8.72     0  01:24        1.86
  YS02001918           JUNCTION     0.26     1.81     8.88     0  01:25        1.52
  YS02001920           JUNCTION     0.34     2.14     9.15     0  01:25        1.58
  YS02001923           JUNCTION     0.22     2.03     9.29     0  01:25        1.34
  YS02001926           JUNCTION     0.24     1.90     9.35     0  01:25        1.16
  YS02001929           JUNCTION     0.15     1.78     9.47     0  01:26        1.78
  YS02006553           JUNCTION     0.81     2.11     8.39     0  01:25        2.06
  YS02006556           JUNCTION     0.79     2.39     8.70     0  01:49        2.39
  YS02006558           JUNCTION     0.83     2.50     8.77     0  01:49        2.50
  YS02006561           JUNCTION     0.22     1.57     8.23     0  01:25        0.90
  YS02163301           JUNCTION     0.72     2.00     8.52     0  01:53        2.00
  YS02163601           JUNCTION     0.80     2.08     8.48     0  01:25        2.08
  YS02164001           JUNCTION     0.73     2.10     8.56     0  01:53        2.10
  CC-1                 OUTFALL      0.00     0.00     0.00     0  00:00        0.00
  CC-2                 OUTFALL      0.00     0.00     0.00     0  00:00        0.00
  JK-1                 OUTFALL      0.00     0.00     0.00     0  00:00        0.00
  JK-2                 OUTFALL      0.00     0.00     0.00     0  00:00        0.00
  WSC                  OUTFALL      0.17     0.30     0.97     0  02:58        0.30
  CC-storage           STORAGE      1.04     1.82     7.32     0  02:10        1.82
  JK-storage           STORAGE      3.43     4.24     5.04     0  01:38        4.23
  
  
  *******************
  Node Inflow Summary
  *******************
  
  -------------------------------------------------------------------------------------------------
                                  Maximum  Maximum                  Lateral       Total        Flow
                                  Lateral    Total  Time of Max      Inflow      Inflow     Balance
                                   Inflow   Inflow   Occurrence      Volume      Volume       Error
  Node                 Type           LPS      LPS  days hr:min    10^6 ltr    10^6 ltr     Percent
  -------------------------------------------------------------------------------------------------
  WS02003060           JUNCTION     16.53   553.98     0  02:56       0.476        4.83       0.040
  WS02003066           JUNCTION      0.00   537.08     0  02:55           0        4.36       0.028
  WS02003067           JUNCTION      0.00   536.99     0  02:55           0        4.36       0.089
  WS02003069           JUNCTION      0.32   553.96     0  02:56     0.00922        4.84       0.069
  WS02003072           JUNCTION      0.00   553.36     0  02:57           0        4.84       0.128
  WS02003073           JUNCTION      1.82   554.83     0  02:57      0.0524        4.88       0.096
  WS02004401           JUNCTION      0.00  1786.04     0  00:00           0        4.47       0.235
  WS02004402           JUNCTION      0.00  1248.69     0  00:01           0        4.46       0.237
  WS02004403           JUNCTION      0.00   929.44     0  00:01           0        4.45       0.235
  WS02004404           JUNCTION      0.00   877.02     0  00:01           0        4.44       0.189
  WS02004405           JUNCTION      0.00   827.31     0  00:01           0        4.43       0.282
  WS02004406           JUNCTION      0.00   768.45     0  00:02           0        4.42       0.476
  WS02004407           JUNCTION      0.00   539.44     0  02:54           0         4.4       0.018
  WS02004409           JUNCTION      0.00   538.90     0  02:54           0        4.39       0.049
  WS02004410           JUNCTION      0.00   538.35     0  02:54           0        4.39       0.088
  WS02004411           JUNCTION      0.00   537.96     0  02:54           0        4.39       0.115
  WS02004412           JUNCTION      0.00   537.64     0  02:55           0        4.38       0.155
  WS02004413           JUNCTION      0.00   537.48     0  02:55           0        4.38       0.292
  WS02006109           JUNCTION      0.00  1446.81     0  00:00           0        4.36      -0.153
  WS02006110           JUNCTION      0.00   552.96     0  02:52           0        4.34      -1.256
  WS02006111           JUNCTION      0.00  1180.41     0  00:00           0        4.39      -0.975
  WS02006112           JUNCTION      0.00  2307.30     0  00:00           0        4.44      -0.002
  WS02006113           JUNCTION      0.00   558.53     0  02:52           0        4.36      -0.873
  WS02006115           JUNCTION      0.00   953.54     0  00:00           0        4.41      -0.817
  WS02006116           JUNCTION      0.00  1264.47     0  00:00           0        4.44      -0.596
  WS02006228           JUNCTION      0.00   869.18     0  00:00           0        4.34      -0.043
  WS02006229           JUNCTION      0.00   550.49     0  02:52           0        4.33      -0.067
  WS02006230           JUNCTION     10.28   706.67     0  00:00       0.296        4.32       0.043
  WS02006231           JUNCTION      0.00   550.18     0  02:52           0        4.01      -0.015
  WS02006232           JUNCTION      0.00   546.41     0  02:52           0        4.01       0.105
  WS02006234           JUNCTION      0.00   540.37     0  01:31           0           4      -0.037
  WS02006235           JUNCTION      0.00   539.60     0  01:31           0           4       0.040
  WS02006238           JUNCTION      0.00   419.02     0  03:22           0        2.62      -0.057
  WS02006239           JUNCTION      0.00   419.19     0  03:22           0        2.62      -0.074
  WS02006240           JUNCTION      0.00   417.12     0  03:22           0        2.62      -0.011
  WS02006242           JUNCTION      0.00   417.44     0  03:22           0        2.62       0.047
  WS02006243           JUNCTION      0.00   416.90     0  03:22           0        2.62      -0.059
  WS02006245           JUNCTION      0.00   415.75     0  03:22           0        2.62       0.139
  WS02006247           JUNCTION      0.00   415.60     0  03:22           0        2.62       0.027
  WS02006248           JUNCTION      0.00   415.45     0  03:22           0        2.62      -0.037
  WS02006249           JUNCTION      0.00   430.48     0  01:30           0        3.09       0.046
  WS02006251           JUNCTION      0.00   407.89     0  01:30           0        3.09      -0.006
  WS02006252           JUNCTION      0.00   400.00     0  01:27           0        3.09      -0.063
  WS02006256           JUNCTION      0.00   300.00     0  01:25           0        2.09       0.009
  WSF200               JUNCTION      0.00   537.18     0  02:56           0        4.36       0.006
  YS02001580           JUNCTION      0.00   317.46     0  01:24           0     0.00509      -1.818
  YS02001583           JUNCTION      0.00   316.56     0  01:24           0      0.0156     -12.514
  YS02001586           JUNCTION    781.26   781.39     0  01:32        2.16        2.17       0.074
  YS02001590           JUNCTION      0.00   333.36     0  01:49           0        1.59      -0.044
  YS02001593           JUNCTION      0.00   332.33     0  01:49           0        1.59       0.006
  YS02001596           JUNCTION      0.00   318.53     0  01:49           0        1.59      -0.019
  YS02001600           JUNCTION      0.00   318.72     0  01:49           0        1.59      -0.008
  YS02001601           JUNCTION   1459.46  1777.17     0  01:29        2.93        4.52      -0.007
  YS02001602           JUNCTION      0.00   603.42     0  01:24           0        2.58       0.008
  YS02001605           JUNCTION      0.00   603.42     0  01:24           0         2.4       0.008
  YS02001607           JUNCTION      0.00   603.37     0  01:24           0         2.4       0.064
  YS02001610           JUNCTION      0.00   769.14     0  01:31           0        2.78       0.052
  YS02001613           JUNCTION      0.00   551.95     0  01:24           0        2.12       0.067
  YS02001616           JUNCTION      0.00   678.27     0  01:24           0        2.12      -0.013
  YS02001619           JUNCTION   1379.27  1379.27     0  01:31        3.46         5.2      -0.006
  YS02001622           JUNCTION      0.00   988.96     0  01:24           0        4.81      -0.012
  YS02001625           JUNCTION      0.00  1374.84     0  01:33           0        5.11       0.170
  YS02001629           JUNCTION      0.00   782.44     0  02:09           0        3.73       0.001
  YS02001633           JUNCTION   1084.15  1228.94     0  01:25        2.15         5.5       0.054
  YS02001641           JUNCTION      0.00  1222.44     0  01:25           0        5.13       0.046
  YS02001644           JUNCTION    975.23  1908.91     0  01:25        1.87        6.98       0.029
  YS02001647           JUNCTION      0.00  1906.75     0  01:25           0        6.32      -0.002
  YS02001649           JUNCTION      0.00  2103.65     0  01:25           0        8.04       0.001
  YS02001652           JUNCTION      0.00  1081.61     0  01:27           0        1.72      -0.201
  YS02001655           JUNCTION      0.00  1078.87     0  01:27           0        1.72      -0.136
  YS02001658           JUNCTION      0.00  1077.41     0  01:27           0        1.74      -0.218
  YS02001661           JUNCTION      0.00  1075.32     0  01:27           0        1.74       0.028
  YS02001664           JUNCTION    948.69   948.69     0  01:28        1.71        1.71      -0.023
  YS02001745           JUNCTION    633.18   706.12     0  01:26        1.03        1.04       0.281
  YS02001748           JUNCTION      0.00   809.39     0  01:26           0        1.04      -0.461
  YS02001751           JUNCTION      0.00   906.30     0  01:25           0        1.04       0.176
  YS02001754           JUNCTION      0.00   769.52     0  01:25           0        1.04      -0.389
  YS02001757           JUNCTION      0.00  3615.95     0  01:27           0        12.3       0.015
  YS02001759           JUNCTION    870.88  1428.57     0  01:26        1.42        3.23      -0.027
  YS02001762           JUNCTION      0.00   692.41     0  01:39           0         1.8      -0.027
  YS02001765           JUNCTION      0.00   692.50     0  01:39           0         1.8      -0.042
  YS02001767           JUNCTION      0.00   720.03     0  01:25           0         1.8      -0.027
  YS02001770           JUNCTION   1220.92  1220.92     0  01:28        2.16        2.21      -0.018
  YS02001774           JUNCTION      0.00   904.87     0  01:25           0       0.427       0.077
  YS02001779           JUNCTION      0.00   919.64     0  01:25           0       0.379      -0.308
  YS02001783           JUNCTION      0.00  1185.77     0  01:25           0        4.68      -0.003
  YS02001784           JUNCTION      0.00  1185.51     0  01:25           0        4.68      -0.002
  YS02001786           JUNCTION      0.00  1186.51     0  01:25           0        4.68       0.005
  YS02001788           JUNCTION      0.00  1170.50     0  01:49           0        4.68       0.002
  YS02001790           JUNCTION      0.00  1213.33     0  01:25           0        4.68       0.034
  YS02001791           JUNCTION      0.00  1282.37     0  01:32           0        4.68      -0.048
  YS02001793           JUNCTION      0.00  1251.80     0  01:25           0        4.68       0.002
  YS02001882           JUNCTION      0.00   263.15     0  01:24           0      0.0138       2.516
  YS02001884           JUNCTION      0.00   349.54     0  01:24           0      0.0506       3.894
  YS02001887           JUNCTION    976.69   976.69     0  01:27        1.47         1.5       0.271
  YS02001890           JUNCTION      0.00   976.59     0  01:27           0        1.46       0.289
  YS02001895           JUNCTION      0.00   790.40     0  01:24           0        1.27       0.161
  YS02001898           JUNCTION      0.00   738.30     0  01:24           0        1.26      -0.085
  YS02001901           JUNCTION      0.00   518.13     0  01:34           0        1.27       0.209
  YS02001904           JUNCTION      0.00   517.80     0  01:34           0        1.29       0.175
  YS02001907           JUNCTION      0.00  2157.53     0  01:28           0        4.44       0.346
  YS02001910           JUNCTION      0.00  1561.00     0  01:28           0        3.14       0.199
  YS02001915           JUNCTION   1056.31  1560.85     0  01:28        2.06         3.2       0.020
  YS02001918           JUNCTION      0.00  1136.47     0  01:25           0        1.18      -0.009
  YS02001920           JUNCTION      0.00  1092.88     0  01:25           0        1.15       0.013
  YS02001923           JUNCTION      0.00  1422.20     0  01:25           0        1.12      -0.149
  YS02001926           JUNCTION      0.00  1536.63     0  01:25           0         1.1       0.070
  YS02001929           JUNCTION    503.04  1053.31     0  01:25        1.08        1.09      -0.071
  YS02006553           JUNCTION      0.00   795.74     0  01:53           0        2.64       0.422
  YS02006556           JUNCTION      0.00   794.99     0  01:53           0        2.67       0.252
  YS02006558           JUNCTION   1254.15  1254.15     0  01:28        2.15        4.75       0.073
  YS02006561           JUNCTION      0.00  1248.99     0  01:25           0        4.68      -0.014
  YS02163301           JUNCTION      0.00   783.75     0  02:09           0        3.73       0.025
  YS02163601           JUNCTION      0.00  1227.81     0  01:25           0        5.11       0.087
  YS02164001           JUNCTION      0.00  1225.51     0  01:25           0        5.12       0.033
  CC-1                 OUTFALL       0.00   683.00     0  01:30           0        4.91       0.000
  CC-2                 OUTFALL       0.00   683.00     0  01:34           0        4.73       0.000
  JK-1                 OUTFALL       0.00  1000.00     0  01:25           0        2.55       0.000
  JK-2                 OUTFALL       0.00     0.00     0  00:00           0           0       0.000 ltr
  WSC                  OUTFALL       0.00   554.53     0  02:58           0        4.88       0.000
  CC-storage           STORAGE       0.00  3615.95     0  01:27           0        14.5      -0.143
  JK-storage           STORAGE       0.00  1220.11     0  01:26           0        4.83       0.142
  
  
  **********************
  Node Surcharge Summary
  **********************
  
  Surcharging occurs when water rises above the top of the highest conduit.
  ---------------------------------------------------------------------
                                               Max. Height   Min. Depth
                                   Hours       Above Crown    Below Rim
  Node                 Type      Surcharged         Meters       Meters
  ---------------------------------------------------------------------
  WS02006109           JUNCTION        2.03          0.416        1.404
  WS02006110           JUNCTION        1.83          0.544        1.306
  WS02006111           JUNCTION        0.01          0.856        1.014
  WS02006112           JUNCTION        1.79          1.680        0.000
  WS02006113           JUNCTION        0.01          0.705        1.225
  WS02006115           JUNCTION        0.01          0.682        1.568
  WS02006116           JUNCTION        0.01          0.053        2.237
  WS02006228           JUNCTION        2.02          0.810        1.390
  WS02006229           JUNCTION        2.04          0.684        1.766
  WS02006230           JUNCTION        1.82          0.128        1.442
  WS02006231           JUNCTION        1.85          0.259        1.271
  WS02006232           JUNCTION        2.04          0.546        0.934
  WS02006234           JUNCTION        1.91          0.719        0.521
  WS02006235           JUNCTION        2.02          0.913        0.377
  WS02006238           JUNCTION        2.03          0.953        0.477
  WS02006239           JUNCTION        2.02          1.290        0.000
  WS02006240           JUNCTION        2.02          1.390        0.000
  WS02006242           JUNCTION        2.03          0.820        0.000
  WS02006243           JUNCTION        2.01          0.770        0.000
  WS02006245           JUNCTION        2.01          0.850        0.000
  WS02006247           JUNCTION        2.01          0.760        0.000
  WS02006248           JUNCTION        2.00          0.380        0.000
  WS02006249           JUNCTION        2.00          0.390        0.000
  WS02006251           JUNCTION        1.86          0.424        0.756
  WS02006252           JUNCTION        2.06          1.100        0.000
  WS02006256           JUNCTION        2.67          2.050        0.000
  YS02001580           JUNCTION        0.82          0.450        0.000
  YS02001583           JUNCTION        0.83          0.500        0.000
  YS02001586           JUNCTION        1.03          0.510        0.000
  YS02001590           JUNCTION        1.12          0.750        0.000
  YS02001593           JUNCTION        1.12          0.840        0.000
  YS02001596           JUNCTION        1.23          1.070        0.000
  YS02001600           JUNCTION        1.40          1.190        0.000
  YS02001601           JUNCTION        1.75          1.440        0.000
  YS02001602           JUNCTION        1.68          1.270        0.000
  YS02001605           JUNCTION        1.63          1.180        0.000
  YS02001607           JUNCTION        1.13          0.680        0.000
  YS02001610           JUNCTION        1.16          0.680        0.000
  YS02001613           JUNCTION        1.12          0.700        0.000
  YS02001616           JUNCTION        1.08          0.610        0.000
  YS02001619           JUNCTION        1.06          0.610        0.000
  YS02001622           JUNCTION        1.07          0.620        0.000
  YS02001625           JUNCTION        1.26          0.780        0.000
  YS02001629           JUNCTION        1.01          0.470        0.000
  YS02001633           JUNCTION        1.30          1.060        0.000
  YS02001641           JUNCTION        1.27          1.100        0.000
  YS02001644           JUNCTION        1.25          0.920        0.000
  YS02001647           JUNCTION        1.04          0.900        0.000
  YS02001649           JUNCTION        1.21          1.050        0.000
  YS02001652           JUNCTION        0.97          1.130        0.000
  YS02001655           JUNCTION        0.69          1.200        0.000
  YS02001658           JUNCTION        0.35          1.300        0.000
  YS02001661           JUNCTION        0.06          1.390        0.000
  YS02001664           JUNCTION        0.01          1.310        0.000
  YS02001745           JUNCTION        0.01          1.350        0.000
  YS02001748           JUNCTION        0.24          1.190        0.000
  YS02001751           JUNCTION        0.52          1.200        0.000
  YS02001754           JUNCTION        0.87          1.150        0.000
  YS02001757           JUNCTION        1.31          1.210        0.000
  YS02001759           JUNCTION        1.20          1.210        0.000
  YS02001762           JUNCTION        1.16          1.150        0.000
  YS02001765           JUNCTION        1.10          1.100        0.000
  YS02001767           JUNCTION        1.06          1.030        0.000
  YS02001770           JUNCTION        1.02          0.920        0.000
  YS02001774           JUNCTION        1.13          1.050        0.000
  YS02001779           JUNCTION        0.83          0.680        0.000
  YS02001783           JUNCTION        0.69          1.200        0.400
  YS02001784           JUNCTION        0.66          1.314        0.176
  YS02001786           JUNCTION        0.55          1.208        0.222
  YS02001882           JUNCTION        0.63          0.830        0.000
  YS02001884           JUNCTION        0.64          0.870        0.000
  YS02001887           JUNCTION        0.68          0.914        0.036
  YS02001890           JUNCTION        0.69          0.760        0.000
  YS02001895           JUNCTION        0.62          0.750        0.000
  YS02001898           JUNCTION        0.61          0.740        0.000
  YS02001901           JUNCTION        0.66          0.870        0.000
  YS02001904           JUNCTION        0.66          0.850        0.000
  YS02001907           JUNCTION        0.90          0.950        0.000
  YS02001910           JUNCTION        0.72          1.041        0.059
  YS02001915           JUNCTION        0.63          1.000        0.000
  YS02001918           JUNCTION        0.53          0.810        0.000
  YS02001920           JUNCTION        0.55          1.140        0.000
  YS02001923           JUNCTION        0.17          0.820        0.000
  YS02001926           JUNCTION        0.20          0.900        0.000
  YS02001929           JUNCTION        0.01          0.780        0.000
  YS02006553           JUNCTION        0.93          1.108        0.082
  YS02006556           JUNCTION        0.81          1.350        0.000
  YS02006558           JUNCTION        0.80          1.400        0.000
  YS02006561           JUNCTION        0.49          0.772        0.378
  YS02163301           JUNCTION        1.28          0.999        0.031
  YS02163601           JUNCTION        1.34          1.080        0.000
  YS02164001           JUNCTION        1.27          1.100        0.000
  
  
  *********************
  Node Flooding Summary
  *********************
  
  Flooding refers to all water that overflows a node, whether it ponds or not.
  --------------------------------------------------------------------------
                                                             Total   Maximum
                                 Maximum   Time of Max       Flood    Ponded
                        Hours       Rate    Occurrence      Volume     Depth
  Node                 Flooded       LPS   days hr:min    10^6 ltr    Meters
  --------------------------------------------------------------------------
  WS02006112              0.01   1405.86      0  00:00       0.047     0.000
  WS02006239              0.01      0.10      0  03:19       0.000     0.000
  WS02006240              0.01      0.41      0  03:19       0.000     0.000
  WS02006242              0.01      0.37      0  03:19       0.000     0.000
  WS02006243              0.01      0.40      0  03:19       0.000     0.000
  WS02006245              0.01      0.50      0  03:19       0.000     0.000
  WS02006247              0.01      0.45      0  03:19       0.000     0.000
  WS02006248              0.01     17.49      0  02:52       0.000     0.000
  WS02006249              1.85    107.34      0  01:30       0.469     0.000
  WS02006252              0.01      0.91      0  01:27       0.000     0.000
  WS02006256              1.94    266.38      0  01:25       0.716     0.000
  YS02001580              0.01    309.44      0  01:24       0.001     0.000
  YS02001583              0.01    263.56      0  01:24       0.001     0.000
  YS02001586              0.66    463.78      0  01:32       0.571     0.000
  YS02001590              0.01    260.49      0  01:23       0.000     0.000
  YS02001593              0.01     95.74      0  01:23       0.000     0.000
  YS02001596              0.01    130.57      0  01:22       0.000     0.000
  YS02001600              0.01     15.30      0  01:22       0.000     0.000
  YS02001601              0.94   1379.34      0  01:30       1.946     0.000
  YS02001602              0.84     62.05      0  01:37       0.172     0.000
  YS02001605              0.01      9.74      0  01:24       0.000     0.000
  YS02001607              0.01    419.01      0  01:24       0.004     0.000
  YS02001610              0.74    768.79      0  01:31       1.044     0.000
  YS02001613              0.01    536.34      0  01:24       0.003     0.000
  YS02001616              0.01    603.63      0  01:24       0.004     0.000
  YS02001619              0.01    398.90      0  01:24       0.001     0.000
  YS02001622              0.01    457.68      0  01:24       0.001     0.000
  YS02001625              0.73   1374.58      0  01:33       1.745     0.000
  YS02001629              0.15    331.65      0  01:24       0.082     0.000
  YS02001633              0.01      5.12      0  01:25       0.000     0.000
  YS02001641              0.01      1.08      0  01:53       0.000     0.000
  YS02001644              0.28   1163.44      0  01:27       0.645     0.000
  YS02001647              0.01    131.66      0  01:25       0.000     0.000
  YS02001649              0.01    182.15      0  01:26       0.004     0.000
  YS02001652              0.01    504.19      0  01:25       0.001     0.000
  YS02001655              0.01    457.16      0  01:25       0.001     0.000
  YS02001658              0.01    434.26      0  01:25       0.001     0.000
  YS02001661              0.01    360.07      0  01:26       0.000     0.000
  YS02001664              0.01    122.29      0  01:26       0.000     0.000
  YS02001745              0.01    234.65      0  01:26       0.000     0.000
  YS02001748              0.01    623.54      0  01:26       0.002     0.000
  YS02001751              0.01    206.57      0  01:26       0.001     0.000
  YS02001754              0.01    670.22      0  01:25       0.001     0.000
  YS02001757              0.01    332.01      0  01:25       0.000     0.000
  YS02001759              0.01    286.72      0  01:25       0.000     0.000
  YS02001762              0.01    309.80      0  01:25       0.001     0.000
  YS02001765              0.01    443.32      0  01:25       0.001     0.000
  YS02001767              0.01    357.72      0  01:25       0.001     0.000
  YS02001770              0.02    297.14      0  01:25       0.002     0.000
  YS02001774              0.01    471.29      0  01:25       0.001     0.000
  YS02001779              0.24    884.31      0  01:25       0.358     0.000
  YS02001882              0.01    204.32      0  01:24       0.000     0.000
  YS02001884              0.01     89.35      0  01:24       0.000     0.000
  YS02001890              0.21    464.99      0  01:25       0.190     0.000
  YS02001895              0.01    435.75      0  01:24       0.001     0.000
  YS02001898              0.01    694.98      0  01:24       0.004     0.000
  YS02001901              0.01     27.58      0  01:24       0.000     0.000
  YS02001904              0.01      0.69      0  01:49       0.000     0.000
  YS02001907              0.47   2157.34      0  01:29       1.799     0.000
  YS02001915              0.01    423.15      0  01:24       0.001     0.000
  YS02001918              0.01    369.92      0  01:25       0.006     0.000
  YS02001920              0.01    640.56      0  01:25       0.001     0.000
  YS02001923              0.01    792.36      0  01:25       0.002     0.000
  YS02001926              0.01    873.56      0  01:25       0.002     0.000
  YS02001929              0.01    979.50      0  01:26       0.009     0.000
  YS02006556              0.01      1.36      0  01:49       0.000     0.000
  YS02006558              0.01     40.83      0  01:49       0.000     0.000
  YS02163601              0.01     21.50      0  01:49       0.000     0.000
  YS02164001              0.01      1.14      0  01:53       0.000     0.000
  
  
  **********************
  Storage Volume Summary
  **********************
  
  --------------------------------------------------------------------------------------------------
                         Average     Avg  Evap Exfil       Maximum     Max    Time of Max    Maximum
                          Volume    Pcnt  Pcnt  Pcnt        Volume    Pcnt     Occurrence    Outflow
  Storage Unit           1000 m3    Full  Loss  Loss       1000 m3    Full    days hr:min        LPS
  --------------------------------------------------------------------------------------------------
  CC-storage               2.889      45     0     0         5.063      79       0  02:10    1766.00
  JK-storage               0.172      59     0     0         0.213      73       0  01:38    1300.00
  
  
  ***********************
  Outfall Loading Summary
  ***********************
  
  -----------------------------------------------------------
                         Flow       Avg       Max       Total
                         Freq      Flow      Flow      Volume
  Outfall Node           Pcnt       LPS       LPS    10^6 ltr
  -----------------------------------------------------------
  CC-1                  42.16    683.00    683.00       4.914
  CC-2                  40.52    683.00    683.00       4.730
  JK-1                  17.02   1000.00   1000.00       2.546
  JK-2                   0.00      0.00      0.00       0.000
  WSC                   99.99    254.20    554.53       4.880
  -----------------------------------------------------------
  System                39.94   2620.20    554.53      17.071
  
  
  ********************
  Link Flow Summary
  ********************
  
  -----------------------------------------------------------------------------
                                 Maximum  Time of Max   Maximum    Max/    Max/
                                  |Flow|   Occurrence   |Veloc|    Full    Full
  Link                 Type          LPS  days hr:min     m/sec    Flow   Depth
  -----------------------------------------------------------------------------
  1                    CONDUIT    554.53     0  02:58      2.83    0.19    0.30
  WS02003060WS02003069 CONDUIT    553.64     0  02:56      1.64    0.22    0.34
  WS02003066WSF200     CONDUIT    537.18     0  02:56      2.85    0.09    0.22
  WS02003067WS02003066 CONDUIT    537.08     0  02:55      1.21    0.17    0.42
  WS02003069WS02003072 CONDUIT    553.36     0  02:57      1.37    0.27    0.39
  WS02003072WS02003073 CONDUIT    553.01     0  02:57      1.43    1.19    0.37
  WS02004401WS02004402 CONDUIT   1248.69     0  00:01      2.52    1.50    0.86
  WS02004402WS02004403 CONDUIT    929.44     0  00:01      2.21    1.34    0.89
  WS02004403WS02004404 CONDUIT    877.02     0  00:01      2.01    0.63    0.93
  WS02004404WS02004405 CONDUIT    827.31     0  00:01      2.30    8.11    0.96
  WS02004405WS02004406 CONDUIT    768.45     0  00:02      2.19    1.52    0.96
  WS02004406WS02004407 CONDUIT    539.44     0  02:54      1.04    0.24    0.63
  WS02004407WS02004409 CONDUIT    538.90     0  02:54      2.06    0.19    0.48
  WS02004409WS02004410 CONDUIT    538.35     0  02:54      1.39    0.70    0.67
  WS02004410WS02004411 CONDUIT    537.96     0  02:54      1.32    0.73    0.69
  WS02004411WS02004412 CONDUIT    537.64     0  02:55      1.28    0.76    0.69
  WS02004412WS02004413 CONDUIT    537.48     0  02:55      1.25    0.36    0.78
  WS02004413WS02003067 CONDUIT    536.99     0  02:55      1.11    0.23    0.59
  WS02006109WS02006110 CONDUIT   1446.81     0  00:00      2.88    2.78    1.00
  WS02006110WS02006113 CONDUIT    558.53     0  02:52      1.33    0.51    1.00
  WS02006111WS02006112 CONDUIT   2307.30     0  00:00      9.18    1.10    1.00
  WS02006112WS02006115 CONDUIT    953.54     0  00:00      1.24    0.56    1.00
  WS02006113WS02006111 CONDUIT   1180.41     0  00:00      2.48    1.41    1.00
  WS02006115WS02006116 CONDUIT   1264.47     0  00:00      1.74    1.62    1.00
  WS02006116WS02004401 CONDUIT   1786.04     0  00:00      2.94    2.46    0.84
  WS02006228WS02006109 CONDUIT    869.18     0  00:00      1.91    3.80    1.00
  WS02006229WS02006228 CONDUIT    551.51     0  02:52      1.10    1.83    1.00
  WS02006230WS02006229 CONDUIT    696.39     0  00:00      1.89   15.50    1.00
  WS02006231WS02006230 CONDUIT    550.79     0  02:52      1.91    8.35    1.00
  WS02006232WS02006231 CONDUIT    550.18     0  02:52      1.80    1.15    1.00
  WS02006234WS02006232 CONDUIT    546.41     0  02:52      1.42    1.11    1.00
  WS02006235WS02006234 CONDUIT    540.37     0  01:31      1.40    5.70    1.00
  WS02006238WS02006235 CONDUIT    420.40     0  03:22      1.09    0.94    1.00
  WS02006239WS02006238 CONDUIT    419.02     0  03:22      1.09    1.34    1.00
  WS02006240WS02006239 CONDUIT    419.19     0  03:22      1.09    1.32    1.00
  WS02006242WS02006240 CONDUIT    417.12     0  03:22      1.08    1.66    1.00
  WS02006243WS02006242 CONDUIT    417.44     0  03:22      1.13    0.89    1.00
  WS02006245WS02006243 CONDUIT    416.90     0  03:22      1.14    1.23    1.00
  WS02006247WS02006245 CONDUIT    415.75     0  03:22      1.20    3.30    1.00
  WS02006248WS02006247 CONDUIT    415.60     0  03:22      1.28    0.90    1.00
  WS02006249WS02006248 CONDUIT    415.45     0  03:22      1.31    2.28    1.00
  WS02006251WS02006249 CONDUIT    430.48     0  01:30      1.43    1.24    1.00
  WS02006252WS02006251 CONDUIT    407.89     0  01:30     13.29    1.50    1.00
  WS02006256WS02006235 CONDUIT    251.39     0  01:25      3.56    2.66    1.00
  WSF200WS02003060     CONDUIT    537.45     0  02:56      2.06    0.12    0.28
  YS02001580YS02001583 CONDUIT    317.46     0  01:24      1.17    1.23    1.00
  YS02001583YS02001586 CONDUIT    316.56     0  01:24      1.38    0.48    1.00
  YS02001586YS02001590 CONDUIT    333.36     0  01:49      1.36    0.58    1.00
  YS02001590YS02001593 CONDUIT    332.33     0  01:49      1.18    2.09    1.00
  YS02001593YS02001596 CONDUIT    318.53     0  01:49      1.72    0.50    1.00
  YS02001596YS02001600 CONDUIT    318.72     0  01:49      1.21    0.62    1.00
  YS02001600YS02001601 CONDUIT    318.43     0  01:52      1.13    0.55    1.00
  YS02001601YS02001602 CONDUIT    603.42     0  01:24      2.13    2.18    1.00
  YS02001602YS02001605 CONDUIT    603.42     0  01:24      2.13   12.77    1.00
  YS02001605YS02001607 CONDUIT    603.37     0  01:24      2.13    3.31    1.00
  YS02001607YS02001610 CONDUIT    576.99     0  01:24      0.81    0.55    1.00
  YS02001610YS02001613 CONDUIT    535.32     0  01:24      0.76    0.62    1.00
  YS02001613YS02001616 CONDUIT    482.92     0  01:24      0.74    0.41    1.00
  YS02001616YS02001619 CONDUIT    441.84     0  02:20      0.66    0.77    1.00
  YS02001619YS02001622 CONDUIT    988.96     0  01:24      1.58    1.46    1.00
  YS02001622YS02001625 CONDUIT    950.58     0  01:31      1.21    0.51    1.00
  YS02001625YS02001629 CONDUIT    782.44     0  02:09      1.00    0.37    1.00
  YS02001629YS02163301 CONDUIT    783.75     0  02:09      1.00    0.97    1.00
  YS02001633YS02163601 CONDUIT   1227.81     0  01:25      1.56    1.29    1.00
  YS02001641YS02001644 CONDUIT   1220.64     0  01:25      1.55    3.95    1.00
  YS02001644YS02001647 CONDUIT   1906.75     0  01:25      2.43    1.12    1.00
  YS02001647YS02001649 CONDUIT   1905.77     0  01:25      2.43    1.01    1.00
  YS02001649YS02001757 CONDUIT   2104.22     0  01:25      2.68    1.28    1.00
  YS02001652YS02001649 CONDUIT   1082.14     0  01:27      1.38    0.54    1.00
  YS02001655YS02001652 CONDUIT   1081.61     0  01:27      1.93    0.53    1.00
  YS02001658YS02001655 CONDUIT   1078.87     0  01:27      2.26    0.46    1.00
  YS02001661YS02001658 CONDUIT   1077.41     0  01:27      2.65    0.42    1.00
  YS02001664YS02001661 CONDUIT   1075.32     0  01:27      2.69    0.34    1.00
  YS02001745YS02001748 CONDUIT    700.15     0  01:26      2.62    0.27    1.00
  YS02001748YS02001751 CONDUIT    701.00     0  01:26      2.07    0.35    1.00
  YS02001751YS02001754 CONDUIT    700.78     0  01:26      1.94    0.34    1.00
  YS02001754YS02001757 CONDUIT    700.89     0  01:26      0.89    0.28    1.00
  YS02001757CaochengTiaoxuchi CONDUIT   3615.95     0  01:27      4.61    1.57    1.00
  YS02001759YS02001757 CONDUIT   1428.84     0  01:26      1.82    1.02    1.00
  YS02001762YS02001759 CONDUIT    693.57     0  01:39      0.88    0.80    1.00
  YS02001765YS02001762 CONDUIT    692.41     0  01:39      0.88    0.65    1.00
  YS02001767YS02001765 CONDUIT    692.50     0  01:39      0.98    0.87    1.00
  YS02001770YS02001767 CONDUIT    720.03     0  01:25      1.17    2.85    1.00
  YS02001774YS02001770 CONDUIT    904.87     0  01:25      1.15    0.58    1.00
  YS02001779YS02001774 CONDUIT    919.64     0  01:25      1.17    0.46    1.00
  YS02001783YS02001784 CONDUIT   1185.51     0  01:25      2.36    1.63    1.00
  YS02001784YS02001785 CONDUIT   1186.51     0  01:25      2.37    2.76    1.00
  YS02001786YS02001788 CONDUIT   1170.50     0  01:49      2.55    2.26    0.90
  YS02001788YS02001790 CONDUIT   1213.33     0  01:25      2.78    0.89    0.84
  YS02001790YS02001791 CONDUIT   1282.37     0  01:32      3.43    1.40    0.70
  YS02001791YS02001793 CONDUIT   1251.80     0  01:25      6.22    0.54    0.45
  YS02001793JiankangQianchi CONDUIT   1220.11     0  01:26      2.26    0.10    0.65
  YS02001882YS02001884 CONDUIT    263.15     0  01:24      0.34    0.30    1.00
  YS02001884YS02001887 CONDUIT    349.54     0  01:24      0.45    0.47    1.00
  YS02001887YS02001890 CONDUIT    976.59     0  01:27      1.24    1.67    1.00
  YS02001890YS02001895 CONDUIT    790.40     0  01:24      1.01    0.37    1.00
  YS02001895YS02001898 CONDUIT    711.42     0  01:24      0.91    1.23    1.00
  YS02001898YS02001901 CONDUIT    518.13     0  01:34      0.66    0.33    1.00
  YS02001901YS02001904 CONDUIT    517.80     0  01:34      0.66    0.80    1.00
  YS02001904YS02001907 CONDUIT    518.81     0  01:35      0.66    0.18    1.00
  YS02001907YS02006553 CONDUIT    795.74     0  01:53      0.88    0.94    1.00
  YS02001910YS02001907 CONDUIT   1560.99     0  01:29      1.99    0.88    1.00
  YS02001915YS02001910 CONDUIT   1561.00     0  01:28      1.99    0.78    1.00
  YS02001918YS02001915 CONDUIT   1136.47     0  01:25      1.45    0.63    1.00
  YS02001920YS02001918 CONDUIT   1092.88     0  01:25      1.39    1.06    1.00
  YS02001923YS02001920 CONDUIT   1073.24     0  01:25      1.44    0.48    1.00
  YS02001926YS02001923 CONDUIT   1198.59     0  01:25      1.65    1.71    1.00
  YS02001929YS02001926 CONDUIT    678.65     0  01:25      1.35    0.32    1.00
  YS02006553YS02006556 CONDUIT    794.99     0  01:53      1.01    0.68    1.00
  YS02006556YS02006558 CONDUIT    791.71     0  01:53      1.01    0.63    1.00
  YS02006558YS02006561 CONDUIT   1248.99     0  01:25      4.42    2.76    1.00
  YS02006561YS02001783 CONDUIT   1185.77     0  01:25      2.36    0.61    1.00
  YS02163301YS02001633 CONDUIT    784.50     0  02:09      1.00    0.74    1.00
  YS02163601YS02164001 CONDUIT   1225.51     0  01:25      1.56    1.09    1.00
  YS02164001YS02001641 CONDUIT   1222.44     0  01:25      1.56    1.67    1.00
  CC-R1                PUMP       683.00     0  01:30              1.00
  CC-R2                PUMP       683.00     0  01:34              1.00
  CC-S1                PUMP       200.00     0  01:11              1.00
  CC-S2                PUMP       200.00     0  01:27              1.00
  JK-R1                PUMP      1000.00     0  01:25              1.00
  JK-R2                PUMP         0.00     0  00:00              0.00
  JK-S                 PUMP       300.00     0  01:25              1.00
  
  
  ***************************
  Flow Classification Summary
  ***************************
  
  -------------------------------------------------------------------------------------
                      Adjusted    ---------- Fraction of Time in Flow Class ---------- 
                       /Actual         Up    Down  Sub   Sup   Up    Down  Norm  Inlet 
  Conduit               Length    Dry  Dry   Dry   Crit  Crit  Crit  Crit  Ltd   Ctrl  
  -------------------------------------------------------------------------------------
  1                       1.00   0.00  0.00  0.00  0.00  1.00  0.00  0.00  0.73  0.00
  WS02003060WS02003069    1.00   0.00  0.00  0.00  0.98  0.02  0.00  0.00  0.73  0.00
  WS02003066WSF200        1.00   0.02  0.00  0.00  0.00  0.98  0.00  0.00  0.74  0.00
  WS02003067WS02003066    1.00   0.01  0.00  0.00  0.99  0.00  0.00  0.00  0.00  0.00
  WS02003069WS02003072    1.00   0.00  0.00  0.00  1.00  0.00  0.00  0.00  0.73  0.00
  WS02003072WS02003073    1.00   0.00  0.00  0.00  0.00  0.00  0.00  1.00  0.00  0.00
  WS02004401WS02004402    1.00   0.00  0.00  0.00  1.00  0.00  0.00  0.00  0.00  0.00
  WS02004402WS02004403    1.00   0.00  0.00  0.00  1.00  0.00  0.00  0.00  0.00  0.00
  WS02004403WS02004404    1.00   0.00  0.00  0.00  1.00  0.00  0.00  0.00  0.00  0.00
  WS02004404WS02004405    1.00   0.00  0.00  0.00  1.00  0.00  0.00  0.00  0.00  0.00
  WS02004405WS02004406    1.00   0.00  0.00  0.00  1.00  0.00  0.00  0.00  0.00  0.00
  WS02004406WS02004407    1.00   0.00  0.00  0.00  1.00  0.00  0.00  0.00  0.00  0.00
  WS02004407WS02004409    1.00   0.00  0.00  0.00  0.98  0.01  0.00  0.00  0.99  0.00
  WS02004409WS02004410    1.00   0.00  0.00  0.00  1.00  0.00  0.00  0.00  0.00  0.00
  WS02004410WS02004411    1.00   0.00  0.00  0.00  0.99  0.00  0.00  0.00  0.00  0.00
  WS02004411WS02004412    1.00   0.01  0.00  0.00  0.99  0.00  0.00  0.00  0.00  0.00
  WS02004412WS02004413    1.00   0.01  0.00  0.00  0.99  0.00  0.00  0.00  0.00  0.00
  WS02004413WS02003067    1.00   0.01  0.00  0.00  0.00  0.00  0.99  0.00  0.00  0.00
  WS02006109WS02006110    1.00   0.00  0.00  0.00  1.00  0.00  0.00  0.00  0.00  0.00
  WS02006110WS02006113    1.00   0.00  0.00  0.00  1.00  0.00  0.00  0.00  0.00  0.00
  WS02006111WS02006112    1.00   0.00  0.00  0.00  1.00  0.00  0.00  0.00  1.00  0.00
  WS02006112WS02006115    1.00   0.00  0.00  0.00  1.00  0.00  0.00  0.00  0.00  0.00
  WS02006113WS02006111    1.00   0.00  0.00  0.00  0.00  1.00  0.00  0.00  0.08  0.00
  WS02006115WS02006116    1.00   0.00  0.00  0.00  1.00  0.00  0.00  0.00  0.00  0.00
  WS02006116WS02004401    1.00   0.00  0.00  0.00  1.00  0.00  0.00  0.00  0.00  0.00
  WS02006228WS02006109    1.00   0.00  0.00  0.00  1.00  0.00  0.00  0.00  0.00  0.00
  WS02006229WS02006228    1.00   0.00  0.00  0.00  1.00  0.00  0.00  0.00  0.00  0.00
  WS02006230WS02006229    1.00   0.00  0.00  0.00  1.00  0.00  0.00  0.00  0.01  0.00
  WS02006231WS02006230    1.00   0.00  0.00  0.00  0.44  0.00  0.55  0.00  0.00  0.00
  WS02006232WS02006231    1.00   0.00  0.00  0.00  0.98  0.00  0.02  0.00  0.00  0.00
  WS02006234WS02006232    1.00   0.00  0.00  0.00  1.00  0.00  0.00  0.00  0.55  0.00
  WS02006235WS02006234    1.00   0.00  0.00  0.00  0.60  0.00  0.39  0.00  0.00  0.00
  WS02006238WS02006235    1.00   0.00  0.00  0.00  0.99  0.00  0.00  0.00  0.00  0.00
  WS02006239WS02006238    1.00   0.00  0.07  0.00  0.92  0.00  0.00  0.00  0.64  0.00
  WS02006240WS02006239    1.00   0.11  0.00  0.00  0.56  0.00  0.00  0.33  0.01  0.00
  WS02006242WS02006240    1.00   0.10  0.01  0.00  0.69  0.00  0.20  0.00  0.00  0.00
  WS02006243WS02006242    1.00   0.09  0.08  0.00  0.79  0.00  0.00  0.04  0.54  0.00
  WS02006245WS02006243    1.00   0.09  0.00  0.00  0.59  0.00  0.00  0.32  0.00  0.00
  WS02006247WS02006245    1.00   0.09  0.00  0.00  0.64  0.00  0.00  0.26  0.00  0.00
  WS02006248WS02006247    1.00   0.09  0.00  0.00  0.66  0.00  0.00  0.25  0.06  0.00
  WS02006249WS02006248    1.00   0.09  0.00  0.00  0.56  0.00  0.34  0.00  0.00  0.00
  WS02006251WS02006249    1.00   0.09  0.24  0.00  0.67  0.00  0.00  0.00  0.56  0.00
  WS02006252WS02006251    1.00   0.09  0.36  0.00  0.39  0.00  0.16  0.00  0.00  0.00
  WS02006256WS02006235    1.00   0.00  0.00  0.00  1.00  0.00  0.00  0.00  0.00  0.00
  WSF200WS02003060        1.00   0.00  0.02  0.00  0.47  0.52  0.00  0.00  0.71  0.00
  YS02001580YS02001583    1.00   0.18  0.41  0.00  0.42  0.00  0.00  0.00  0.69  0.00
  YS02001583YS02001586    1.00   0.24  0.25  0.00  0.51  0.00  0.00  0.00  0.69  0.00
  YS02001586YS02001590    1.00   0.08  0.00  0.00  0.67  0.03  0.00  0.23  0.31  0.00
  YS02001590YS02001593    1.00   0.08  0.00  0.00  0.31  0.00  0.61  0.00  0.00  0.00
  YS02001593YS02001596    1.00   0.08  0.00  0.00  0.35  0.02  0.00  0.55  0.02  0.00
  YS02001596YS02001600    1.00   0.08  0.00  0.00  0.46  0.02  0.00  0.44  0.04  0.00
  YS02001600YS02001601    1.00   0.08  0.00  0.00  0.92  0.00  0.00  0.00  0.59  0.00
  YS02001601YS02001602    1.00   0.08  0.00  0.00  0.92  0.00  0.00  0.00  0.00  0.00
  YS02001602YS02001605    1.00   0.08  0.00  0.00  0.92  0.00  0.00  0.00  0.00  0.00
  YS02001605YS02001607    1.00   0.08  0.00  0.00  0.92  0.00  0.00  0.00  0.00  0.00
  YS02001607YS02001610    1.00   0.08  0.00  0.00  0.92  0.00  0.00  0.00  0.01  0.00
  YS02001610YS02001613    1.00   0.08  0.00  0.00  0.92  0.00  0.00  0.00  0.00  0.00
  YS02001613YS02001616    1.00   0.08  0.00  0.00  0.92  0.00  0.00  0.00  0.00  0.00
  YS02001616YS02001619    1.00   0.08  0.00  0.00  0.92  0.00  0.00  0.00  0.00  0.00
  YS02001619YS02001622    1.00   0.08  0.00  0.00  0.91  0.02  0.00  0.00  0.29  0.00
  YS02001622YS02001625    1.00   0.08  0.00  0.00  0.92  0.00  0.00  0.00  0.02  0.00
  YS02001625YS02001629    1.00   0.08  0.05  0.00  0.39  0.00  0.49  0.00  0.00  0.00
  YS02001629YS02163301    1.00   0.09  0.01  0.00  0.91  0.00  0.00  0.00  0.00  0.00
  YS02001633YS02163601    1.00   0.08  0.00  0.00  0.92  0.00  0.00  0.00  0.01  0.00
  YS02001641YS02001644    1.00   0.08  0.00  0.00  0.92  0.00  0.00  0.00  0.00  0.00
  YS02001644YS02001647    1.00   0.08  0.02  0.00  0.90  0.00  0.00  0.00  0.00  0.00
  YS02001647YS02001649    1.00   0.09  0.01  0.00  0.66  0.24  0.00  0.00  0.57  0.00
  YS02001649YS02001757    1.00   0.00  0.09  0.00  0.65  0.27  0.00  0.00  0.20  0.00
  YS02001652YS02001649    1.00   0.08  0.00  0.00  0.86  0.05  0.00  0.00  0.58  0.00
  YS02001655YS02001652    1.00   0.08  0.00  0.00  0.40  0.02  0.00  0.50  0.04  0.00
  YS02001658YS02001655    1.00   0.08  0.00  0.00  0.64  0.28  0.00  0.00  0.66  0.00
  YS02001661YS02001658    1.00   0.08  0.00  0.00  0.52  0.40  0.00  0.00  0.70  0.00
  YS02001664YS02001661    1.00   0.08  0.00  0.00  0.71  0.22  0.00  0.00  0.84  0.00
  YS02001745YS02001748    1.00   0.08  0.00  0.00  0.30  0.01  0.00  0.61  0.06  0.00
  YS02001748YS02001751    1.00   0.08  0.00  0.00  0.69  0.23  0.00  0.00  0.64  0.00
  YS02001751YS02001754    1.00   0.08  0.00  0.00  0.38  0.00  0.00  0.54  0.02  0.00
  YS02001754YS02001757    1.00   0.00  0.08  0.00  0.92  0.00  0.00  0.00  0.66  0.00
  YS02001757CaochengTiaoxuchi    1.00   0.00  0.00  0.00  1.00  0.00  0.00  0.00  0.64  0.00
  YS02001759YS02001757    1.00   0.00  0.08  0.00  0.92  0.01  0.00  0.00  0.56  0.00
  YS02001762YS02001759    1.00   0.08  0.00  0.00  0.92  0.00  0.00  0.00  0.01  0.00
  YS02001765YS02001762    1.00   0.08  0.00  0.00  0.92  0.00  0.00  0.00  0.60  0.00
  YS02001767YS02001765    1.00   0.08  0.00  0.00  0.92  0.00  0.00  0.00  0.00  0.00
  YS02001770YS02001767    1.00   0.08  0.00  0.00  0.92  0.00  0.00  0.00  0.00  0.00
  YS02001774YS02001770    1.00   0.08  0.00  0.00  0.78  0.00  0.14  0.00  0.01  0.00
  YS02001779YS02001774    1.00   0.08  0.32  0.00  0.59  0.00  0.00  0.00  0.61  0.00
  YS02001783YS02001784    1.00   0.13  0.00  0.00  0.86  0.01  0.00  0.00  0.55  0.00
  YS02001784YS02001785    1.00   0.13  0.00  0.00  0.86  0.00  0.00  0.00  0.37  0.00
  YS02001786YS02001788    1.00   0.14  0.00  0.00  0.50  0.36  0.00  0.00  0.00  0.00
  YS02001788YS02001790    1.00   0.14  0.00  0.00  0.23  0.63  0.00  0.00  0.62  0.00
  YS02001790YS02001791    1.00   0.15  0.00  0.00  0.01  0.84  0.00  0.00  0.17  0.00
  YS02001791YS02001793    1.00   0.15  0.00  0.00  0.00  0.84  0.00  0.00  0.02  0.00
  YS02001793JiankangQianchi    1.00   0.00  0.16  0.00  0.84  0.00  0.00  0.00  0.75  0.00
  YS02001882YS02001884    1.00   0.09  0.00  0.00  0.91  0.00  0.00  0.00  0.00  0.00
  YS02001884YS02001887    1.00   0.08  0.00  0.00  0.91  0.00  0.00  0.00  0.00  0.00
  YS02001887YS02001890    1.00   0.08  0.00  0.00  0.91  0.00  0.01  0.00  0.00  0.00
  YS02001890YS02001895    1.00   0.08  0.02  0.00  0.90  0.00  0.00  0.00  0.00  0.00
  YS02001895YS02001898    1.00   0.10  0.00  0.00  0.86  0.00  0.04  0.00  0.00  0.00
  YS02001898YS02001901    1.00   0.10  0.00  0.00  0.89  0.01  0.00  0.00  0.00  0.00
  YS02001901YS02001904    1.00   0.10  0.01  0.00  0.89  0.00  0.00  0.00  0.00  0.00
  YS02001904YS02001907    1.00   0.08  0.03  0.00  0.89  0.00  0.00  0.00  0.00  0.00
  YS02001907YS02006553    1.00   0.08  0.01  0.00  0.91  0.00  0.00  0.00  0.00  0.00
  YS02001910YS02001907    1.00   0.08  0.00  0.00  0.91  0.00  0.00  0.01  0.01  0.00
  YS02001915YS02001910    1.00   0.08  0.00  0.00  0.89  0.03  0.00  0.00  0.01  0.00
  YS02001918YS02001915    1.00   0.08  0.02  0.00  0.90  0.00  0.00  0.00  0.70  0.00
  YS02001920YS02001918    1.00   0.09  0.01  0.00  0.90  0.00  0.00  0.00  0.00  0.00
  YS02001923YS02001920    1.00   0.09  0.00  0.00  0.91  0.00  0.00  0.00  0.76  0.00
  YS02001926YS02001923    1.00   0.08  0.01  0.00  0.15  0.00  0.76  0.00  0.00  0.00
  YS02001929YS02001926    1.00   0.08  0.00  0.00  0.92  0.00  0.00  0.00  0.79  0.00
  YS02006553YS02006556    1.00   0.08  0.00  0.00  0.92  0.00  0.00  0.00  0.01  0.00
  YS02006556YS02006558    1.00   0.08  0.00  0.00  0.92  0.00  0.00  0.00  0.00  0.00
  YS02006558YS02006561    1.00   0.13  0.00  0.00  0.15  0.73  0.00  0.00  0.17  0.00
  YS02006561YS02001783    1.00   0.13  0.00  0.00  0.29  0.59  0.00  0.00  0.67  0.00
  YS02163301YS02001633    1.00   0.08  0.01  0.00  0.91  0.00  0.00  0.00  0.00  0.00
  YS02163601YS02164001    1.00   0.08  0.00  0.00  0.91  0.00  0.00  0.00  0.01  0.00
  YS02164001YS02001641    1.00   0.08  0.01  0.00  0.91  0.00  0.00  0.00  0.00  0.00
  
  
  *************************
  Conduit Surcharge Summary
  *************************
  
  ----------------------------------------------------------------------------
                                                           Hours        Hours 
                         --------- Hours Full --------   Above Full   Capacity
  Conduit                Both Ends  Upstream  Dnstream   Normal Flow   Limited
  ----------------------------------------------------------------------------
  WS02003072WS02003073        0.01      0.01      0.01      1.82         0.01
  WS02004401WS02004402        0.01      0.01      0.01      0.01         0.01
  WS02004402WS02004403        0.01      0.01      0.01      0.02         0.01
  WS02004404WS02004405        0.01      0.01      0.01      2.40         0.01
  WS02004405WS02004406        0.01      0.01      0.01      1.76         0.01
  WS02006109WS02006110        1.83      1.83      2.05      1.85         0.01
  WS02006110WS02006113        0.01      0.01      2.04      0.01         0.01
  WS02006111WS02006112        0.01      0.01      2.12      0.01         0.01
  WS02006112WS02006115        0.01      0.01      1.78      0.01         0.01
  WS02006113WS02006111        0.01      0.01      0.01      0.01         0.01
  WS02006115WS02006116        0.01      0.01      0.01      0.01         0.01
  WS02006116WS02004401        0.01      0.01      0.01      0.02         0.01
  WS02006228WS02006109        2.03      2.05      2.03      2.16         2.02
  WS02006229WS02006228        2.02      2.03      2.02      2.11         2.01
  WS02006230WS02006229        2.06      2.09      2.07      2.44         2.06
  WS02006231WS02006230        1.81      1.81      1.85      2.31         0.01
  WS02006232WS02006231        1.85      1.85      2.04      1.86         0.01
  WS02006234WS02006232        2.01      2.01      2.04      1.85         1.84
  WS02006235WS02006234        1.91      1.91      2.02      2.27         0.01
  WS02006238WS02006235        2.02      2.02      2.04      0.01         0.01
  WS02006239WS02006238        2.03      2.03      2.03      2.02         1.84
  WS02006240WS02006239        2.02      2.02      2.02      2.01         1.71
  WS02006242WS02006240        2.02      2.02      2.04      2.05         0.01
  WS02006243WS02006242        2.01      2.01      2.03      0.01         0.01
  WS02006245WS02006243        2.01      2.01      2.01      0.16         0.47
  WS02006247WS02006245        2.01      2.01      2.01      2.22         2.00
  WS02006248WS02006247        2.00      2.00      2.01      0.01         0.01
  WS02006249WS02006248        2.00      2.00      2.00      2.22         0.01
  WS02006251WS02006249        2.00      2.00      2.00      2.04         1.99
  WS02006252WS02006251        2.05      2.05      2.06      2.05         0.01
  WS02006256WS02006235        2.29      2.29      2.67      1.94         0.01
  YS02001580YS02001583        0.82      0.82      0.89      0.01         0.01
  YS02001583YS02001586        0.83      0.83      1.03      0.01         0.01
  YS02001586YS02001590        1.04      1.04      1.12      0.01         0.01
  YS02001590YS02001593        1.12      1.12      1.13      1.20         0.01
  YS02001593YS02001596        1.13      1.13      1.23      0.01         0.01
  YS02001596YS02001600        1.28      1.28      1.40      0.01         0.01
  YS02001600YS02001601        1.47      1.47      1.75      0.01         0.01
  YS02001601YS02001602        1.68      1.68      1.78      1.38         0.01
  YS02001602YS02001605        1.63      1.63      1.68      2.35         0.01
  YS02001605YS02001607        1.57      1.63      1.57      1.72         1.57
  YS02001607YS02001610        1.13      1.13      1.16      0.01         0.01
  YS02001610YS02001613        1.12      1.12      1.16      0.01         0.01
  YS02001613YS02001616        1.08      1.08      1.12      0.01         0.01
  YS02001616YS02001619        1.06      1.06      1.08      0.01         0.03
  YS02001619YS02001622        1.06      1.06      1.07      1.05         0.94
  YS02001622YS02001625        1.07      1.07      1.26      0.01         0.01
  YS02001625YS02001629        1.01      1.01      1.26      0.01         0.01
  YS02001629YS02163301        1.26      1.26      1.28      0.01         0.10
  YS02001633YS02163601        1.30      1.30      1.34      0.23         0.25
  YS02001641YS02001644        1.25      1.27      1.25      1.79         1.23
  YS02001644YS02001647        1.04      1.04      1.25      0.02         0.01
  YS02001647YS02001649        1.04      1.04      1.21      0.01         0.01
  YS02001649YS02001757        1.21      1.21      1.31      0.03         0.05
  YS02001652YS02001649        1.00      1.00      1.21      0.01         0.01
  YS02001655YS02001652        0.69      0.69      0.97      0.01         0.01
  YS02001658YS02001655        0.35      0.35      0.69      0.01         0.01
  YS02001661YS02001658        0.06      0.06      0.35      0.01         0.01
  YS02001664YS02001661        0.01      0.01      0.12      0.01         0.01
  YS02001745YS02001748        0.01      0.01      0.24      0.01         0.01
  YS02001748YS02001751        0.30      0.30      0.52      0.01         0.01
  YS02001751YS02001754        0.52      0.52      0.87      0.01         0.01
  YS02001754YS02001757        0.93      0.93      1.31      0.01         0.01
  YS02001757CaochengTiaoxuchi        1.28      1.31      1.78      0.43         0.38
  YS02001759YS02001757        1.20      1.20      1.31      0.01         0.03
  YS02001762YS02001759        1.16      1.16      1.20      0.01         0.01
  YS02001765YS02001762        1.10      1.10      1.16      0.01         0.01
  YS02001767YS02001765        1.06      1.06      1.10      0.01         0.02
  YS02001770YS02001767        1.05      1.05      1.06      0.67         0.68
  YS02001774YS02001770        1.02      1.02      1.13      0.01         0.01
  YS02001779YS02001774        0.83      0.83      1.13      0.01         0.01
  YS02001783YS02001784        0.66      0.69      0.66      0.84         0.66
  YS02001784YS02001785        0.55      0.66      0.55      1.13         0.55
  YS02001786YS02001788        0.01      0.55      0.01      0.96         0.01
  YS02001790YS02001791        0.01      0.01      0.01      0.65         0.01
  YS02001793JiankangQianchi        0.01      0.01      6.63      0.01         0.01
  YS02001882YS02001884        0.63      0.63      0.64      0.01         0.01
  YS02001884YS02001887        0.67      0.67      0.68      0.01         0.01
  YS02001887YS02001890        0.69      0.69      0.71      0.17         0.01
  YS02001890YS02001895        0.62      0.62      0.72      0.01         0.01
  YS02001895YS02001898        0.61      0.61      0.62      0.01         0.01
  YS02001898YS02001901        0.62      0.62      0.66      0.01         0.01
  YS02001901YS02001904        0.65      0.65      0.66      0.01         0.01
  YS02001904YS02001907        0.66      0.66      0.93      0.01         0.01
  YS02001907YS02006553        1.15      1.15      1.23      0.01         0.01
  YS02001910YS02001907        0.72      0.72      0.90      0.01         0.01
  YS02001915YS02001910        0.63      0.63      0.72      0.01         0.01
  YS02001918YS02001915        0.53      0.53      0.63      0.01         0.01
  YS02001920YS02001918        0.53      0.53      0.55      0.01         0.01
  YS02001923YS02001920        0.48      0.48      0.55      0.01         0.01
  YS02001926YS02001923        0.17      0.17      0.20      0.01         0.01
  YS02001929YS02001926        0.01      0.01      0.20      0.01         0.01
  YS02006553YS02006556        0.80      0.80      0.93      0.01         0.01
  YS02006556YS02006558        0.86      0.86      0.96      0.01         0.01
  YS02006558YS02006561        0.57      0.80      0.57      1.07         0.57
  YS02006561YS02001783        0.49      0.49      0.69      0.01         0.01
  YS02163301YS02001633        1.28      1.28      1.32      0.01         0.01
  YS02163601YS02164001        1.27      1.27      1.34      0.01         0.01
  YS02164001YS02001641        1.27      1.27      1.27      0.82         0.81
  
  
  ***************
  Pumping Summary
  ***************
  
  ---------------------------------------------------------------------------------------------------------
                                                  Min       Avg       Max     Total     Power    % Time Off
                        Percent   Number of      Flow      Flow      Flow    Volume     Usage    Pump Curve
  Pump                 Utilized   Start-Ups       LPS       LPS       LPS  10^6 ltr     Kw-hr    Low   High
  ---------------------------------------------------------------------------------------------------------
  CC-R1                   24.98           1      0.00    683.00    683.00     4.914     93.26    0.0   13.4
  CC-R2                   24.05           1      0.00    683.00    683.00     4.730     89.86    0.0   13.9
  CC-S1                   28.05           4      0.00    200.00    200.00     1.616      8.66    0.0    0.0
  CC-S2                   25.63           1      0.00    200.00    200.00     1.476      7.80    0.0    0.0
  JK-R1                    8.85         116      0.00   1000.00   1000.00     2.549     34.50    0.0    0.0
  JK-R2                    0.00           0      0.00      0.00      0.00     0.000      0.00    0.0    0.0
  JK-S                    24.19           1      0.00    300.00    300.00     2.090     26.36    0.0    0.0
  

  Analysis begun on:  Thu Sep  7 10:18:39 2023
  Analysis ended on:  Thu Sep  7 10:19:16 2023
  Total elapsed time: 00:00:37