
  OWA STORM WATER MANAGEMENT MODEL - VERSION v5.1.14 (OWA 2022-07-31)
  --------------------------------------------------------------

  WARNING 04: minimum elevation drop used for Conduit WS02004404WS02004405
  WARNING 03: negative offset ignored for Link YS02001904YS02001907
  
  *********************************************************
  NOTE: The summary statistics displayed in this report are
  based on results found at every computational time step,  
  not just on results from each reporting time step.
  *********************************************************
  
  ****************
  Analysis Options
  ****************
  Flow Units ............... LPS
  Process Models:
    Rainfall/Runoff ........ YES
    RDII ................... NO
    Snowmelt ............... NO
    Groundwater ............ NO
    Flow Routing ........... YES
    Ponding Allowed ........ NO
    Water Quality .......... NO
  Infiltration Method ...... HORTON
  Flow Routing Method ...... DYNWAVE
  Surcharge Method ......... EXTRAN
  Starting Date ............ 08/28/2015 08:00:00
  Ending Date .............. 08/28/2015 16:00:00
  Antecedent Dry Days ...... 8.0
  Report Time Step ......... 00:01:00
  Wet Time Step ............ 00:01:00
  Dry Time Step ............ 00:01:00
  Routing Time Step ........ 30.00 sec
  Variable Time Step ....... YES
  Maximum Trials ........... 8
  Number of Threads ........ 4
  Head Tolerance ........... 0.001500 m
  
  
  **************************        Volume         Depth
  Runoff Quantity Continuity     hectare-m            mm
  **************************     ---------       -------
  Initial LID Storage ......         0.072         1.184
  Total Precipitation ......         2.819        46.533
  Evaporation Loss .........         0.000         0.000
  Infiltration Loss ........         0.200         3.294
  Surface Runoff ...........         2.054        33.901
  Final Storage ............         0.638        10.527
  Continuity Error (%) .....        -0.012
  
  
  **************************        Volume        Volume
  Flow Routing Continuity        hectare-m      10^6 ltr
  **************************     ---------     ---------
  Dry Weather Inflow .......         0.630         6.296
  Wet Weather Inflow .......         2.053        20.529
  Groundwater Inflow .......         0.000         0.000
  RDII Inflow ..............         0.000         0.000
  External Inflow ..........         0.105         1.045
  External Outflow .........         2.284        22.840
  Flooding Loss ............         0.415         4.154
  Evaporation Loss .........         0.000         0.000
  Exfiltration Loss ........         0.000         0.000
  Initial Stored Volume ....         0.303         3.031
  Final Stored Volume ......         0.396         3.958
  Continuity Error (%) .....        -0.168
  
  
  *************************
  Highest Continuity Errors
  *************************
  Node HS02004842 (6.66%)
  Node YS02001884 (5.01%)
  Node YS02001583 (-2.83%)
  Node YS02001774 (1.96%)
  Node HS02004817 (1.47%)
  
  
  ***************************
  Time-Step Critical Elements
  ***************************
  Link WS02006280WS02006229 (67.89%)
  Link WS02006238WS02006235 (9.53%)
  Link YS02006556YS02006558 (3.73%)
  Link WS02004404WS02004405 (3.24%)
  Link WS02006252WS02006251 (2.28%)
  
  
  ********************************
  Highest Flow Instability Indexes
  ********************************
  Link WS02006113WS02006111 (19)
  Link YS02001790YS02001791 (15)
  Link YS02006558YS02006561 (14)
  Link WS02006229WS02006228 (13)
  Link YS02006556YS02006558 (12)
  
  
  *************************
  Routing Time Step Summary
  *************************
  Minimum Time Step           :     0.00 sec
  Average Time Step           :     2.79 sec
  Maximum Time Step           :     6.46 sec
  Percent in Steady State     :    -0.00
  Average Iterations per Step :     2.74
  Percent Not Converging      :     5.71
  
  
  ***************************
  Subcatchment Runoff Summary
  ***************************
  
  ------------------------------------------------------------------------------------------------------------------------------
                            Total      Total      Total      Total     Imperv       Perv      Total       Total     Peak  Runoff
                           Precip      Runon       Evap      Infil     Runoff     Runoff     Runoff      Runoff   Runoff   Coeff
  Subcatchment                 mm         mm         mm         mm         mm         mm         mm    10^6 ltr      LPS
  ------------------------------------------------------------------------------------------------------------------------------
  sub0                      30.07       0.00       0.00       1.02      26.70       1.08      27.79        0.02     5.56   0.924
  sub1                      30.07       0.00       0.00       1.51      22.87       1.45      24.32        0.16    38.02   0.809
  sub10                     30.07       0.00       0.00       0.97      21.43       0.98      22.41        0.25    59.25   0.745
  sub11                     30.07       0.00       0.00       0.89      19.93       0.92      20.85        0.24    59.15   0.693
  sub12                     30.07       0.00       0.00       1.57      20.26       1.60      21.87        0.19    47.29   0.727
  sub14                     30.07       0.00       0.00       0.97      18.87       0.99      19.86        0.19    45.97   0.660
  sub15                     30.07       0.00       0.00       4.21      16.96       3.41      20.37        0.35    78.07   0.677
  sub16                     30.07       0.00       0.00       4.54      16.55       4.00      20.55        0.22    49.51   0.683
  sub17                     30.07       0.00       0.00       4.84      18.27       4.16      22.43        0.19    43.85   0.746
  sub2                      30.07       0.00       0.00       6.36      16.71       3.94      20.65        0.19    38.99   0.687
  sub22                     30.07       0.00       0.00       7.31      15.84       5.21      21.05        1.33   276.29   0.700
  sub23                     30.07       0.00       0.00       5.60      16.31       4.44      20.75        0.99   216.48   0.690
  sub3                      30.07       0.00       0.00       6.64      16.53       3.57      20.10        0.45    87.40   0.668
  sub4                      30.07       0.00       0.00       1.61      22.46       1.32      23.79        0.50   100.90   0.791
  sub5                      30.07       0.00       0.00       0.87      22.12       0.88      23.00        0.26    61.99   0.765
  sub60                     60.14       0.00       0.00       1.43      39.92       4.14      44.05        0.58   139.59   0.733
  sub61                     60.14       0.00       0.00       2.20      39.88       6.16      46.04        0.84   204.39   0.766
  sub62                     60.14       0.00       0.00       0.97      42.51       2.81      45.32        1.24   296.44   0.754
  sub63                     60.14       0.00       0.00       3.99      34.16      10.28      44.44        1.01   240.43   0.739
  sub64                     60.14       0.00       0.00       1.92      38.89       5.11      44.00        1.06   250.91   0.732
  sub65                     60.14       0.00       0.00       1.76      41.97       4.66      46.63        1.28   302.16   0.775
  sub66                     60.14       0.00       0.00       4.55      33.02       9.28      42.30        1.97   423.04   0.703
  sub67                     60.14       0.00       0.00       0.97      43.59       2.91      46.50        0.86   207.88   0.773
  sub68                     60.14       0.00       0.00       1.69      38.49       4.73      43.22        1.19   286.40   0.719
  sub69                     60.14       0.00       0.00       1.54      40.43       5.60      46.03        1.70   393.07   0.765
  sub7                      30.07       0.00       0.00       1.03      20.23       1.06      21.29        0.07    17.59   0.708
  sub70                     60.14       0.00       0.00       4.97      32.38      11.77      44.15        1.28   256.81   0.734
  sub71                     60.14       0.00       0.00       0.90      38.62       2.54      41.16        1.08   254.91   0.684
  sub72                     60.14       0.00       0.00       0.85      41.71       2.36      44.07        0.61   140.26   0.733
  sub8                      30.07       0.00       0.00       1.01      19.66       1.03      20.68        0.13    32.19   0.688
  sub9                      30.07       0.00       0.00       0.98      19.06       1.00      20.05        0.10    23.48   0.667
  

  ***********************
  LID Performance Summary
  ***********************

  --------------------------------------------------------------------------------------------------------------------
                                         Total      Evap     Infil   Surface    Drain    Initial     Final  Continuity
                                        Inflow      Loss      Loss   Outflow   Outflow   Storage   Storage       Error
  Subcatchment      LID Control             mm        mm        mm        mm        mm        mm        mm           %
  --------------------------------------------------------------------------------------------------------------------
  sub1              GreenRoof            30.07      0.00      0.00      0.00      0.00      7.05     37.12        0.00
  sub10             GreenRoof            30.07      0.00      0.00      0.00      0.00      7.05     37.12        0.00
  sub11             GreenRoof            30.07      0.00      0.00      0.00      0.00      7.05     37.12        0.00
  sub12             GreenRoof            30.07      0.00      0.00      0.00      0.00      7.05     37.12        0.00
  sub14             GreenRoof            30.07      0.00      0.00      0.00      0.00      7.05     37.12        0.00
  sub15             GreenRoof            30.07      0.00      0.00      0.00      0.00      7.05     37.12        0.00
  sub16             GreenRoof            30.07      0.00      0.00      0.00      0.00      7.05     37.12        0.00
  sub17             GreenRoof            30.07      0.00      0.00      0.00      0.00      7.05     37.12        0.00
  sub2              GreenRoof            30.07      0.00      0.00      0.00      0.00      7.05     37.12        0.00
  sub22             GreenRoof            30.07      0.00      0.00      0.00      0.00      7.05     37.12        0.00
  sub23             GreenRoof            30.07      0.00      0.00      0.00      0.00      7.05     37.12        0.00
  sub3              GreenRoof            30.07      0.00      0.00      0.00      0.00      7.05     37.12        0.00
  sub4              GreenRoof            30.07      0.00      0.00      0.00      0.00      7.05     37.12        0.00
  sub5              GreenRoof            30.07      0.00      0.00      0.00      0.00      7.05     37.12        0.00
  sub60             GreenRoof            60.14      0.00      0.00      0.00      0.00      7.05     67.19        0.00
  sub61             GreenRoof            60.14      0.00      0.00      0.00      0.00      7.05     67.19        0.00
  sub62             GreenRoof            60.14      0.00      0.00      0.00      0.00      7.05     67.19        0.00
  sub63             GreenRoof            60.14      0.00      0.00      0.00      0.00      7.05     67.19        0.00
  sub64             GreenRoof            60.14      0.00      0.00      0.00      0.00      7.05     67.19        0.00
  sub65             GreenRoof            60.14      0.00      0.00      0.00      0.00      7.05     67.19        0.00
  sub66             GreenRoof            60.14      0.00      0.00      0.00      0.00      7.05     67.19        0.00
  sub67             GreenRoof            60.14      0.00      0.00      0.00      0.00      7.05     67.19        0.00
  sub68             GreenRoof            60.14      0.00      0.00      0.00      0.00      7.05     67.19        0.00
  sub69             GreenRoof            60.14      0.00      0.00      0.00      0.00      7.05     67.19        0.00
  sub7              GreenRoof            30.07      0.00      0.00      0.00      0.00      7.05     37.12        0.00
  sub70             GreenRoof            60.14      0.00      0.00      0.00      0.00      7.05     67.19        0.00
  sub71             GreenRoof            60.14      0.00      0.00      0.00      0.00      7.05     67.19        0.00
  sub72             GreenRoof            60.14      0.00      0.00      0.00      0.00      7.05     67.19        0.00
  sub8              GreenRoof            30.07      0.00      0.00      0.00      0.00      7.05     37.12        0.00
  sub9              GreenRoof            30.07      0.00      0.00      0.00      0.00      7.05     37.12        0.00
  
  ******************
  Node Depth Summary
  ******************
  
  ---------------------------------------------------------------------------------
                                 Average  Maximum  Maximum  Time of Max    Reported
                                   Depth    Depth      HGL   Occurrence   Max Depth
  Node                 Type       Meters   Meters   Meters  days hr:min      Meters
  ---------------------------------------------------------------------------------
  HS02004478           JUNCTION     0.14     0.37     9.60     0  01:37        0.37
  HS02004479           JUNCTION     0.22     0.52     9.72     0  01:37        0.52
  HS02004480           JUNCTION     0.19     0.48     9.72     0  01:37        0.48
  HS02004770           JUNCTION     0.20     0.44    10.27     0  01:37        0.44
  HS02004777           JUNCTION     0.22     0.46    10.26     0  01:37        0.46
  HS02004785           JUNCTION     0.12     0.30    10.20     0  01:37        0.30
  HS02004788           JUNCTION     0.07     0.20    10.10     0  01:37        0.20
  HS02004792           JUNCTION     0.10     0.29     9.82     0  01:37        0.29
  HS02004799           JUNCTION     0.24     0.58     9.79     0  01:37        0.58
  HS02004802           JUNCTION     0.24     0.49     9.62     0  01:38        0.49
  HS02004807           JUNCTION     0.21     0.46     9.63     0  01:38        0.46
  HS02004817           JUNCTION     0.51     0.79     9.64     0  01:38        0.79
  HS02004824           JUNCTION     0.07     0.23     9.63     0  01:38        0.23
  HS02004830           JUNCTION     0.07     0.17     9.64     0  01:38        0.17
  HS02004837           JUNCTION     0.05     0.11     9.69     0  01:37        0.11
  HS02004842           JUNCTION     0.35     0.42     9.69     0  01:37        0.42
  HS02004848           JUNCTION     0.03     0.09     9.69     0  01:37        0.09
  HS02004852           JUNCTION     0.03     0.10     9.61     0  01:37        0.10
  HS02004856           JUNCTION     0.10     0.17     9.60     0  01:37        0.17
  HS02004862           JUNCTION     0.05     0.14     9.52     0  01:37        0.14
  HS02004870           JUNCTION     0.04     0.12     9.41     0  01:37        0.12
  HS02004876           JUNCTION     0.08     0.20     9.23     0  01:36        0.20
  HS02004881           JUNCTION     0.02     0.10     9.12     0  01:24        0.07
  HS02004901           JUNCTION     0.21     0.45    10.27     0  01:36        0.45
  WS02001211           JUNCTION     0.63     0.74     5.58     0  01:43        0.74
  WS02001212           JUNCTION     0.37     0.49     5.56     0  01:41        0.49
  WS02001213           JUNCTION     0.59     0.79     5.55     0  01:42        0.79
  WS02003059           JUNCTION     0.65     0.86     5.54     0  01:38        0.86
  WS02003060           JUNCTION     0.38     0.60     5.53     0  01:39        0.60
  WS02003066           JUNCTION     0.22     0.40     5.95     0  01:39        0.40
  WS02003067           JUNCTION     0.54     0.83     6.15     0  01:38        0.83
  WS02003069           JUNCTION     0.42     0.68     5.27     0  01:40        0.68
  WS02003072           JUNCTION     0.48     0.73     5.10     0  01:40        0.73
  WS02003073           JUNCTION     0.29     0.46     4.52     0  01:41        0.46
  WS02004138           JUNCTION     0.13     0.14     7.39     0  00:29        0.14
  WS02004139           JUNCTION     0.57     0.67     5.58     0  01:42        0.67
  WS02004401           JUNCTION     0.73     1.58     7.58     0  01:25        1.34
  WS02004402           JUNCTION     0.75     1.54     7.50     0  01:25        1.33
  WS02004403           JUNCTION     0.76     1.50     7.43     0  01:25        1.26
  WS02004404           JUNCTION     0.82     1.52     7.37     0  01:25        1.30
  WS02004405           JUNCTION     0.81     1.47     7.32     0  01:25        1.29
  WS02004406           JUNCTION     0.80     1.33     7.16     0  01:25        1.21
  WS02004407           JUNCTION     0.21     0.45     6.76     0  01:38        0.45
  WS02004409           JUNCTION     0.50     1.05     6.82     0  01:38        1.05
  WS02004410           JUNCTION     0.51     1.01     6.73     0  01:38        1.01
  WS02004411           JUNCTION     0.52     0.98     6.66     0  01:39        0.98
  WS02004412           JUNCTION     0.53     0.94     6.58     0  01:38        0.94
  WS02004413           JUNCTION     0.67     1.05     6.52     0  01:38        1.05
  WS02006109           JUNCTION     0.89     1.98     8.59     0  01:25        1.88
  WS02006110           JUNCTION     0.83     1.95     8.54     0  01:25        1.64
  WS02006111           JUNCTION     0.38     1.47     8.18     0  01:25        1.02
  WS02006112           JUNCTION     0.93     2.07     7.95     0  01:25        1.67
  WS02006113           JUNCTION     0.42     1.63     8.52     0  01:25        1.10
  WS02006115           JUNCTION     0.65     1.69     7.83     0  01:25        1.31
  WS02006116           JUNCTION     0.72     1.67     7.71     0  01:25        1.35
  WS02006228           JUNCTION     0.94     2.09     8.74     0  01:26        2.09
  WS02006229           JUNCTION     0.95     2.19     8.88     0  01:26        2.16
  WS02006230           JUNCTION     0.92     2.12     8.87     0  01:26        2.10
  WS02006231           JUNCTION     0.65     1.74     8.86     0  01:26        1.73
  WS02006232           JUNCTION     0.75     1.81     8.84     0  01:26        1.79
  WS02006234           JUNCTION     0.65     1.68     8.83     0  01:38        1.68
  WS02006235           JUNCTION     0.67     1.67     8.83     0  01:38        1.66
  WS02006238           JUNCTION     0.69     1.69     8.83     0  01:38        1.68
  WS02006239           JUNCTION     0.64     1.75     8.95     0  01:22        1.65
  WS02006240           JUNCTION     0.60     2.10     9.39     0  01:22        1.52
  WS02006242           JUNCTION     0.64     1.55     8.82     0  01:22        1.51
  WS02006243           JUNCTION     0.54     1.48     8.90     0  01:23        1.38
  WS02006245           JUNCTION     0.52     1.56     9.04     0  01:23        1.27
  WS02006247           JUNCTION     0.52     1.47     8.97     0  01:23        1.47
  WS02006248           JUNCTION     0.47     1.10     8.69     0  01:23        1.10
  WS02006249           JUNCTION     0.49     1.09     8.69     0  01:23        1.09
  WS02006251           JUNCTION     0.51     2.21     9.88     0  01:24        1.46
  WS02006252           JUNCTION     0.31     1.50     9.74     0  00:00        1.50
  WS02006253           JUNCTION     0.54     3.18    10.83     0  01:23        1.55
  WS02006256           JUNCTION     1.22     2.35     9.28     0  00:00        2.35
  WS02006280           JUNCTION     0.15     0.51     8.78     0  01:26        0.50
  WS02006284           JUNCTION     0.45     0.74     9.14     0  01:38        0.74
  WS02006287           JUNCTION     0.20     0.48     9.44     0  01:37        0.48
  WSF200               JUNCTION     0.22     0.44     5.68     0  01:39        0.44
  YS02001580           JUNCTION     0.10     1.05     9.59     0  01:23        0.62
  YS02001583           JUNCTION     0.14     1.14     9.64     0  01:23        0.67
  YS02001586           JUNCTION     0.24     1.13     9.30     0  01:23        1.00
  YS02001590           JUNCTION     0.36     1.39     9.25     0  01:23        1.25
  YS02001593           JUNCTION     0.30     1.32     9.19     0  01:23        1.20
  YS02001596           JUNCTION     0.43     1.68     9.10     0  01:23        1.59
  YS02001600           JUNCTION     0.54     1.87     9.00     0  01:23        1.83
  YS02001601           JUNCTION     0.73     2.06     8.90     0  01:22        2.06
  YS02001602           JUNCTION     0.63     1.87     8.77     0  01:36        1.87
  YS02001605           JUNCTION     0.57     1.73     8.64     0  01:43        1.73
  YS02001607           JUNCTION     0.51     1.53     8.38     0  01:41        1.52
  YS02001610           JUNCTION     0.55     1.57     8.37     0  01:41        1.56
  YS02001613           JUNCTION     0.51     1.52     8.37     0  01:41        1.50
  YS02001616           JUNCTION     0.44     1.45     8.36     0  01:41        1.42
  YS02001619           JUNCTION     0.42     1.42     8.35     0  01:41        1.38
  YS02001622           JUNCTION     0.40     1.41     8.31     0  01:41        1.35
  YS02001625           JUNCTION     0.66     1.65     8.26     0  01:41        1.59
  YS02001629           JUNCTION     0.55     1.66     8.20     0  01:41        1.61
  YS02001633           JUNCTION     0.62     1.68     8.13     0  01:41        1.63
  YS02001641           JUNCTION     0.57     1.48     7.92     0  01:41        1.45
  YS02001644           JUNCTION     0.56     1.43     7.86     0  01:41        1.39
  YS02001647           JUNCTION     0.33     1.14     7.75     0  01:41        1.10
  YS02001649           JUNCTION     0.38     1.25     7.64     0  01:41        1.22
  YS02001652           JUNCTION     0.25     1.05     7.64     0  01:42        1.02
  YS02001655           JUNCTION     0.17     0.77     7.62     0  01:42        0.76
  YS02001658           JUNCTION     0.10     0.48     7.62     0  01:41        0.48
  YS02001661           JUNCTION     0.14     0.28     7.68     0  01:35        0.28
  YS02001664           JUNCTION     0.07     0.19     8.11     0  01:33        0.19
  YS02001745           JUNCTION     0.06     0.16     7.67     0  01:31        0.16
  YS02001748           JUNCTION     0.09     0.44     7.51     0  01:43        0.42
  YS02001751           JUNCTION     0.13     0.64     7.52     0  01:43        0.64
  YS02001754           JUNCTION     0.21     0.91     7.52     0  01:42        0.91
  YS02001757           JUNCTION     0.39     1.26     7.52     0  01:41        1.25
  YS02001759           JUNCTION     0.33     1.16     7.53     0  01:42        1.15
  YS02001762           JUNCTION     0.31     1.13     7.53     0  01:41        1.12
  YS02001765           JUNCTION     0.29     1.08     7.53     0  01:41        1.07
  YS02001767           JUNCTION     0.28     1.05     7.54     0  01:41        1.04
  YS02001770           JUNCTION     0.29     1.04     7.54     0  01:41        1.04
  YS02001774           JUNCTION     0.36     1.11     7.54     0  01:41        1.11
  YS02001779           JUNCTION     0.18     0.85     7.53     0  01:40        0.84
  YS02001783           JUNCTION     0.27     0.79     6.94     0  01:36        0.79
  YS02001784           JUNCTION     0.29     0.77     6.84     0  01:36        0.77
  YS02001786           JUNCTION     0.25     0.63     6.66     0  01:36        0.63
  YS02001788           JUNCTION     0.18     0.50     6.48     0  01:37        0.50
  YS02001790           JUNCTION     0.22     0.59     6.23     0  01:35        0.59
  YS02001791           JUNCTION     0.14     0.36     5.83     0  01:35        0.35
  YS02001793           JUNCTION     0.07     0.18     5.01     0  01:35        0.18
  YS02001882           JUNCTION     0.31     0.84     7.56     0  01:36        0.84
  YS02001884           JUNCTION     0.40     0.94     7.56     0  01:36        0.94
  YS02001887           JUNCTION     0.47     1.02     7.56     0  01:36        1.02
  YS02001890           JUNCTION     0.50     1.06     7.56     0  01:36        1.05
  YS02001895           JUNCTION     0.28     0.81     7.55     0  01:36        0.81
  YS02001898           JUNCTION     0.29     0.82     7.55     0  01:36        0.81
  YS02001901           JUNCTION     0.40     0.94     7.55     0  01:36        0.94
  YS02001904           JUNCTION     0.38     0.92     7.55     0  01:36        0.91
  YS02001907           JUNCTION     0.70     1.26     7.55     0  01:37        1.26
  YS02001910           JUNCTION     0.49     1.05     7.56     0  01:37        1.05
  YS02001915           JUNCTION     0.30     0.84     7.56     0  01:37        0.84
  YS02001918           JUNCTION     0.12     0.49     7.56     0  01:36        0.49
  YS02001920           JUNCTION     0.21     0.56     7.56     0  01:36        0.56
  YS02001923           JUNCTION     0.07     0.30     7.56     0  01:35        0.30
  YS02001926           JUNCTION     0.14     0.31     7.75     0  01:34        0.31
  YS02001929           JUNCTION     0.07     0.17     7.87     0  01:34        0.17
  YS02006553           JUNCTION     0.70     1.25     7.54     0  01:36        1.25
  YS02006556           JUNCTION     0.67     1.21     7.52     0  01:37        1.20
  YS02006558           JUNCTION     0.71     1.24     7.51     0  01:36        1.24
  YS02006561           JUNCTION     0.15     0.41     7.07     0  01:35        0.41
  YS02163301           JUNCTION     0.57     1.65     8.17     0  01:41        1.62
  YS02163601           JUNCTION     0.64     1.64     8.03     0  01:41        1.59
  YS02164001           JUNCTION     0.57     1.51     7.97     0  01:41        1.47
  YSB1154              JUNCTION     0.35     0.67     9.73     0  01:37        0.67
  YSB1171              JUNCTION     0.50     0.82     9.72     0  01:37        0.82
  YSB1174              JUNCTION     0.31     0.62     9.72     0  01:36        0.62
  YSB6556              JUNCTION     0.25     0.56     9.72     0  01:37        0.56
  CC-1                 OUTFALL      0.00     0.00     0.00     0  00:00        0.00
  CC-2                 OUTFALL      0.00     0.00     0.00     0  00:00        0.00
  JK-1                 OUTFALL      0.00     0.00     0.00     0  00:00        0.00
  JK-2                 OUTFALL      0.00     0.00     0.00     0  00:00        0.00
  WSC                  OUTFALL      0.29     0.46     1.13     0  01:43        0.46
  CC-storage           STORAGE      0.87     1.47     6.97     0  02:00        1.47
  JK-storage           STORAGE      2.21     4.21     5.01     0  01:43        4.15
  XR-storage           STORAGE      7.83     9.26     7.26     0  08:00        9.26
  
  
  *******************
  Node Inflow Summary
  *******************
  
  -------------------------------------------------------------------------------------------------
                                  Maximum  Maximum                  Lateral       Total        Flow
                                  Lateral    Total  Time of Max      Inflow      Inflow     Balance
                                   Inflow   Inflow   Occurrence      Volume      Volume       Error
  Node                 Type           LPS      LPS  days hr:min    10^6 ltr    10^6 ltr     Percent
  -------------------------------------------------------------------------------------------------
  HS02004478           JUNCTION      0.00  1020.38     0  01:38           0         4.9       0.006
  HS02004479           JUNCTION      0.00   107.43     0  01:34           0       0.462       0.162
  HS02004480           JUNCTION      0.00   772.08     0  01:37           0        3.57       0.014
  HS02004770           JUNCTION    216.48   265.75     0  01:36       0.989         1.2       0.254
  HS02004777           JUNCTION      0.03   265.44     0  01:36    0.000864         1.2       0.435
  HS02004785           JUNCTION      0.15   265.45     0  01:37     0.00432         1.2       0.041
  HS02004788           JUNCTION     79.74   344.87     0  01:37       0.398         1.6       0.024
  HS02004792           JUNCTION    276.57   621.19     0  01:37        1.34        2.93       0.014
  HS02004799           JUNCTION     45.97   665.70     0  01:37       0.189        3.12       0.113
  HS02004802           JUNCTION      0.00   249.56     0  01:39           0        1.34       0.287
  HS02004807           JUNCTION     59.15   249.14     0  01:38       0.242        1.34       0.334
  HS02004817           JUNCTION      0.60   194.39     0  01:40      0.0173        1.12       1.490
  HS02004824           JUNCTION    100.95   192.68     0  01:39       0.498         1.1       0.049
  HS02004830           JUNCTION      0.15    91.61     0  01:37     0.00432       0.603       0.206
  HS02004837           JUNCTION     65.60    91.51     0  01:37        0.43       0.612       0.133
  HS02004842           JUNCTION      0.00    30.24     0  01:53           0       0.195       7.134
  HS02004848           JUNCTION     87.40    87.40     0  01:39       0.452       0.452       0.011
  HS02004852           JUNCTION      0.00    59.76     0  01:37           0        0.27       0.019
  HS02004856           JUNCTION     23.48    82.46     0  01:37      0.0964       0.367       0.396
  HS02004862           JUNCTION     39.19   121.60     0  01:37       0.198       0.563       0.029
  HS02004870           JUNCTION     32.19   152.74     0  01:37       0.132       0.695       0.016
  HS02004876           JUNCTION     38.02   190.41     0  01:36       0.162       0.857       0.058
  HS02004881           JUNCTION     17.59   207.46     0  01:36      0.0717       0.928       0.051
  HS02004901           JUNCTION     49.51    49.51     0  01:35       0.215       0.215       0.821
  WS02001211           JUNCTION      7.35   208.85     0  01:31       0.212        5.44       0.612
  WS02001212           JUNCTION      0.00   208.97     0  03:15           0        5.41       0.291
  WS02001213           JUNCTION      0.00   214.15     0  03:15           0        5.39       0.331
  WS02003059           JUNCTION      0.00   221.73     0  03:15           0        5.38       0.595
  WS02003060           JUNCTION     16.53  1222.91     0  01:38       0.476          13       0.112
  WS02003066           JUNCTION      0.00  1008.71     0  01:38           0        7.19       0.020
  WS02003067           JUNCTION      0.00  1008.68     0  01:39           0         7.2       0.059
  WS02003069           JUNCTION      0.32  1222.13     0  01:39     0.00922          13       0.118
  WS02003072           JUNCTION      0.00  1221.63     0  01:40           0          13       0.159
  WS02003073           JUNCTION      1.82  1223.24     0  01:41      0.0524          13       0.165
  WS02004138           JUNCTION      0.00   380.00     0  00:00           0        5.25       0.052
  WS02004139           JUNCTION      0.32   190.95     0  00:29     0.00924        5.26       0.509
  WS02004401           JUNCTION      0.00  1015.76     0  01:27           0         7.3       0.141
  WS02004402           JUNCTION      0.00  1015.37     0  01:27           0        7.29       0.144
  WS02004403           JUNCTION      0.00  1015.54     0  01:26           0        7.28       0.140
  WS02004404           JUNCTION      0.16  1017.44     0  01:26     0.00467        7.28       0.119
  WS02004405           JUNCTION      0.04  1019.42     0  01:26      0.0011        7.27       0.171
  WS02004406           JUNCTION      0.00  1020.94     0  01:26           0        7.26       0.290
  WS02004407           JUNCTION      0.00  1022.63     0  01:26           0        7.24       0.020
  WS02004409           JUNCTION      0.00  1015.90     0  01:26           0        7.23       0.041
  WS02004410           JUNCTION      0.00  1008.71     0  01:38           0        7.23       0.065
  WS02004411           JUNCTION      0.00  1008.73     0  01:38           0        7.23       0.081
  WS02004412           JUNCTION      0.00  1008.71     0  01:39           0        7.22       0.107
  WS02004413           JUNCTION      0.00  1008.68     0  01:39           0        7.21       0.188
  WS02006109           JUNCTION      1.23   999.00     0  01:25      0.0354        7.16       0.100
  WS02006110           JUNCTION      0.00   999.09     0  01:25           0        7.15       0.103
  WS02006111           JUNCTION      0.00   977.92     0  01:26           0        7.14       0.012
  WS02006112           JUNCTION     43.85  1017.39     0  01:26       0.192        7.33       0.266
  WS02006113           JUNCTION      0.00   999.16     0  01:25           0        7.14       0.023
  WS02006115           JUNCTION      0.00  1017.38     0  01:26           0        7.31       0.087
  WS02006116           JUNCTION      0.00  1016.31     0  01:26           0        7.31       0.047
  WS02006228           JUNCTION      0.00   997.97     0  01:25           0        7.12       0.028
  WS02006229           JUNCTION      0.00  1069.21     0  01:25           0        7.22       0.113
  WS02006230           JUNCTION     10.28   470.15     0  03:07       0.296        2.43       0.330
  WS02006231           JUNCTION      0.00   459.80     0  03:07           0        2.12      -0.198
  WS02006232           JUNCTION      0.00   459.73     0  03:07           0         2.1       0.243
  WS02006234           JUNCTION      0.00   459.63     0  03:07           0        2.07      -0.216
  WS02006235           JUNCTION      0.00   459.50     0  03:07           0        2.42       0.176
  WS02006238           JUNCTION      0.00   393.29     0  03:08           0        1.53      -0.227
  WS02006239           JUNCTION      0.00   394.33     0  03:08           0        1.49      -0.223
  WS02006240           JUNCTION      0.00   394.23     0  03:08           0        1.45      -0.073
  WS02006242           JUNCTION      0.00   394.36     0  03:08           0        1.42       0.021
  WS02006243           JUNCTION      0.00   394.26     0  03:08           0         1.4      -0.040
  WS02006245           JUNCTION      0.00   393.93     0  03:08           0        1.39       0.574
  WS02006247           JUNCTION      0.00   392.78     0  03:08           0        1.38       0.034
  WS02006248           JUNCTION      0.00   393.64     0  03:08           0        1.54       0.020
  WS02006249           JUNCTION      0.00   641.19     0  01:27           0        3.65       0.105
  WS02006251           JUNCTION      0.08   629.67     0  01:27     0.00222        3.67      -0.029
  WS02006252           JUNCTION      0.00   400.00     0  00:00           0         2.7      -0.031
  WS02006253           JUNCTION      5.56   443.15     0  01:23      0.0225       0.966       0.036
  WS02006256           JUNCTION      0.00   300.00     0  00:00           0        2.16      -0.119
  WS02006280           JUNCTION      0.00  1020.66     0  01:38           0        4.89       0.015
  WS02006284           JUNCTION      0.10  1020.59     0  01:38     0.00275        4.89       0.020
  WS02006287           JUNCTION      0.00  1020.43     0  01:38           0        4.89       0.021
  WSF200               JUNCTION      0.00  1008.75     0  01:40           0        7.19       0.008
  YS02001580           JUNCTION      0.00    58.54     0  01:23           0     0.00437       0.955
  YS02001583           JUNCTION      0.00    83.77     0  01:22           0      0.0162      -2.756
  YS02001586           JUNCTION    256.81   257.06     0  01:37        1.28        1.29       0.078
  YS02001590           JUNCTION      0.00   257.09     0  01:36           0        1.27      -0.052
  YS02001593           JUNCTION      0.00   257.01     0  01:37           0        1.28      -0.008
  YS02001596           JUNCTION      0.00   257.14     0  01:37           0        1.28      -0.014
  YS02001600           JUNCTION      0.00   257.11     0  01:36           0        1.28      -0.007
  YS02001601           JUNCTION    393.07   646.95     0  01:34         1.7        2.98       0.010
  YS02001602           JUNCTION      0.00   502.38     0  01:23           0        2.68       0.007
  YS02001605           JUNCTION      0.00   502.40     0  01:23           0        2.68       0.005
  YS02001607           JUNCTION      0.00   502.30     0  01:23           0        2.68       0.060
  YS02001610           JUNCTION      0.00   501.50     0  01:23           0        2.68       0.089
  YS02001613           JUNCTION      0.00   501.59     0  01:23           0        2.68       0.057
  YS02001616           JUNCTION      0.00   506.07     0  01:22           0        2.68       0.015
  YS02001619           JUNCTION    423.04   885.68     0  01:34        1.97        4.65      -0.003
  YS02001622           JUNCTION      0.00   885.39     0  01:33           0        4.64      -0.006
  YS02001625           JUNCTION      0.00   885.35     0  01:32           0        4.64       0.214
  YS02001629           JUNCTION      0.00   885.39     0  01:32           0        4.64       0.008
  YS02001633           JUNCTION    302.36  1186.83     0  01:32        1.29        5.93       0.051
  YS02001641           JUNCTION      0.00  1187.20     0  01:32           0        5.93       0.046
  YS02001644           JUNCTION    250.95  1437.70     0  01:32        1.06        6.98       0.043
  YS02001647           JUNCTION      0.00  1438.04     0  01:32           0        6.97       0.003
  YS02001649           JUNCTION      0.00  1648.18     0  01:32           0        7.98       0.005
  YS02001652           JUNCTION      0.00   243.52     0  01:40           0        1.01      -0.164
  YS02001655           JUNCTION      0.15   262.29     0  01:40     0.00443        1.01       0.131
  YS02001658           JUNCTION      0.00   242.21     0  01:36           0        1.01      -0.005
  YS02001661           JUNCTION      0.00   240.42     0  01:33           0        1.01       0.035
  YS02001664           JUNCTION    240.43   240.43     0  01:33        1.01        1.01      -0.013
  YS02001745           JUNCTION    139.59   139.59     0  01:31       0.579       0.579       0.071
  YS02001748           JUNCTION      0.04   139.63     0  01:31      0.0013       0.579      -0.101
  YS02001751           JUNCTION      0.01   154.29     0  01:38    0.000317        0.58       0.125
  YS02001754           JUNCTION      0.26   142.39     0  01:44     0.00749       0.587      -0.168
  YS02001757           JUNCTION      0.00  2207.78     0  01:27           0        10.7       0.027
  YS02001759           JUNCTION    204.43   472.50     0  01:27       0.845        2.11      -0.017
  YS02001762           JUNCTION      0.00   274.82     0  01:27           0        1.26       0.005
  YS02001765           JUNCTION      0.00   286.90     0  01:27           0        1.26       0.006
  YS02001767           JUNCTION      0.54   294.69     0  01:28      0.0154        1.26       0.020
  YS02001770           JUNCTION    296.60   298.15     0  01:36        1.25        1.29      -0.016
  YS02001774           JUNCTION      0.00    62.76     0  01:35           0      0.0569       1.994
  YS02001779           JUNCTION      0.01    38.63     0  01:36    0.000144      0.0163       0.148
  YS02001783           JUNCTION      0.00   867.51     0  01:36           0        3.79       0.007
  YS02001784           JUNCTION      1.06   868.66     0  01:37      0.0305        3.82       0.013
  YS02001786           JUNCTION      0.06   868.78     0  01:37     0.00162        3.82       0.017
  YS02001788           JUNCTION      0.07   868.88     0  01:36     0.00204        3.82       0.009
  YS02001790           JUNCTION      0.15   870.51     0  01:36     0.00446        3.82       0.036
  YS02001791           JUNCTION      0.00   918.12     0  01:38           0        3.82      -0.019
  YS02001793           JUNCTION      0.00   879.71     0  01:35           0        3.82       0.006
  YS02001882           JUNCTION      0.00    32.61     0  01:16           0      0.0162       4.511
  YS02001884           JUNCTION      0.00    68.79     0  01:14           0      0.0502       5.277
  YS02001887           JUNCTION    208.33   210.80     0  01:33       0.877       0.909       0.473
  YS02001890           JUNCTION      0.00   210.46     0  01:28           0        0.87       0.594
  YS02001895           JUNCTION      0.00   209.32     0  01:33           0       0.865       0.268
  YS02001898           JUNCTION      0.00   213.55     0  01:27           0       0.862      -0.019
  YS02001901           JUNCTION      0.00   216.03     0  01:28           0       0.867       0.398
  YS02001904           JUNCTION      0.00   211.85     0  01:32           0       0.876       0.324
  YS02001907           JUNCTION      0.00   596.12     0  01:38           0        2.64       0.669
  YS02001910           JUNCTION      0.00   394.63     0  01:39           0        1.76       0.402
  YS02001915           JUNCTION    254.93   392.37     0  01:35        1.08        1.77       0.089
  YS02001918           JUNCTION      0.00   146.69     0  01:40           0        0.69       0.043
  YS02001920           JUNCTION      2.87   145.87     0  01:35      0.0827       0.691       0.154
  YS02001923           JUNCTION      0.04   140.30     0  01:34     0.00109       0.608       0.002
  YS02001926           JUNCTION      0.05   140.30     0  01:34      0.0015       0.607       0.043
  YS02001929           JUNCTION    140.26   140.26     0  01:34       0.606       0.606      -0.011
  YS02006553           JUNCTION      0.00   595.96     0  01:39           0        2.64       0.445
  YS02006556           JUNCTION      0.00   596.67     0  01:38           0        2.65       0.307
  YS02006558           JUNCTION    287.28   869.51     0  01:36        1.21        3.83       0.089
  YS02006561           JUNCTION      0.00   867.97     0  01:36           0        3.79      -0.004
  YS02163301           JUNCTION      0.00   885.04     0  01:32           0        4.64       0.029
  YS02163601           JUNCTION      0.11  1186.97     0  01:32     0.00317        5.92       0.081
  YS02164001           JUNCTION      0.00  1187.04     0  01:32           0        5.92       0.037
  YSB1154              JUNCTION     61.99    61.99     0  01:34       0.261       0.261       0.551
  YSB1171              JUNCTION      0.00   108.00     0  01:34           0       0.459       1.399
  YSB1174              JUNCTION     47.29    47.29     0  01:32       0.191       0.191       0.669
  YSB6556              JUNCTION      0.00    61.76     0  01:34           0       0.262       0.486
  CC-1                 OUTFALL       0.00   683.00     0  00:00           0        4.28       0.000
  CC-2                 OUTFALL       0.00   683.00     0  00:00           0        3.89       0.000
  JK-1                 OUTFALL       0.00  1000.00     0  00:00           0        1.63       0.000
  JK-2                 OUTFALL       0.00  1000.00     0  00:00           0      0.0484       0.000
  WSC                  OUTFALL       0.00  1223.22     0  01:43           0          13       0.000
  CC-storage           STORAGE       0.00  2174.53     0  01:27           0        12.9      -0.085
  JK-storage           STORAGE       0.00   879.44     0  01:35           0        3.97      -0.033
  XR-storage           STORAGE     200.00   200.00     0  00:00        5.76        6.36       0.001
  
  
  **********************
  Node Surcharge Summary
  **********************
  
  Surcharging occurs when water rises above the top of the highest conduit.
  ---------------------------------------------------------------------
                                               Max. Height   Min. Depth
                                   Hours       Above Crown    Below Rim
  Node                 Type      Surcharged         Meters       Meters
  ---------------------------------------------------------------------
  HS02004817           JUNCTION        0.81          0.092        1.648
  WS02004401           JUNCTION        1.75          0.584        1.076
  WS02004402           JUNCTION        1.76          0.541        1.199
  WS02004403           JUNCTION        1.76          0.500        1.530
  WS02004404           JUNCTION        1.80          0.522        2.258
  WS02004405           JUNCTION        1.79          0.470        2.330
  WS02004406           JUNCTION        1.78          0.327        2.123
  WS02004409           JUNCTION        0.52          0.046        2.314
  WS02004410           JUNCTION        0.20          0.011        2.529
  WS02004413           JUNCTION        1.12          0.049        2.151
  WS02006109           JUNCTION        1.96          1.156        0.664
  WS02006110           JUNCTION        1.84          1.042        0.808
  WS02006111           JUNCTION        0.93          0.661        1.209
  WS02006112           JUNCTION        1.88          1.067        0.613
  WS02006113           JUNCTION        0.99          0.829        1.101
  WS02006115           JUNCTION        1.66          0.677        1.573
  WS02006116           JUNCTION        1.69          0.612        1.678
  WS02006228           JUNCTION        1.96          1.262        0.938
  WS02006229           JUNCTION        0.01          0.010        1.060
  WS02006230           JUNCTION        1.79          1.044        0.526
  WS02006231           JUNCTION        1.81          1.025        0.505
  WS02006232           JUNCTION        1.86          1.106        0.374
  WS02006234           JUNCTION        1.81          0.957        0.283
  WS02006235           JUNCTION        1.82          0.960        0.330
  WS02006238           JUNCTION        1.83          0.967        0.463
  WS02006239           JUNCTION        1.81          1.006        0.284
  WS02006240           JUNCTION        1.80          1.390        0.000
  WS02006242           JUNCTION        1.81          0.820        0.000
  WS02006243           JUNCTION        1.78          0.770        0.000
  WS02006245           JUNCTION        1.78          0.850        0.000
  WS02006247           JUNCTION        1.78          0.760        0.000
  WS02006248           JUNCTION        1.77          0.380        0.000
  WS02006249           JUNCTION        1.77          0.390        0.000
  WS02006251           JUNCTION        1.74          1.180        0.000
  WS02006252           JUNCTION        1.88          1.100        0.000
  WS02006253           JUNCTION        1.74          2.142        0.338
  WS02006256           JUNCTION        4.24          2.050        0.000
  YS02001580           JUNCTION        0.21          0.450        0.000
  YS02001583           JUNCTION        0.24          0.500        0.000
  YS02001586           JUNCTION        0.72          0.510        0.000
  YS02001590           JUNCTION        0.86          0.737        0.013
  YS02001593           JUNCTION        0.86          0.705        0.135
  YS02001596           JUNCTION        1.03          0.951        0.119
  YS02001600           JUNCTION        1.29          1.190        0.000
  YS02001601           JUNCTION        1.87          1.440        0.000
  YS02001602           JUNCTION        1.64          1.270        0.000
  YS02001605           JUNCTION        1.53          1.133        0.047
  YS02001607           JUNCTION        0.81          0.530        0.150
  YS02001610           JUNCTION        0.86          0.575        0.105
  YS02001613           JUNCTION        0.80          0.524        0.176
  YS02001616           JUNCTION        0.72          0.446        0.164
  YS02001619           JUNCTION        0.70          0.421        0.189
  YS02001622           JUNCTION        0.69          0.408        0.212
  YS02001625           JUNCTION        0.98          0.652        0.128
  YS02001629           JUNCTION        0.49          0.275        0.195
  YS02001633           JUNCTION        1.00          0.657        0.403
  YS02001641           JUNCTION        0.90          0.483        0.617
  YS02001644           JUNCTION        0.84          0.427        0.493
  YS02001647           JUNCTION        0.37          0.137        0.763
  YS02001649           JUNCTION        0.55          0.248        0.802
  YS02001652           JUNCTION        0.01          0.018        1.112
  YS02001757           JUNCTION        0.65          0.257        0.953
  YS02001759           JUNCTION        0.47          0.163        1.047
  YS02001762           JUNCTION        0.42          0.131        1.019
  YS02001765           JUNCTION        0.34          0.084        1.016
  YS02001767           JUNCTION        0.25          0.046        0.984
  YS02001770           JUNCTION        0.04          0.013        0.907
  YS02001774           JUNCTION        0.40          0.115        0.935
  YS02001890           JUNCTION        0.01          0.006        0.754
  YS02001907           JUNCTION        0.74          0.251        0.699
  YS02001910           JUNCTION        0.22          0.049        1.051
  YS02006553           JUNCTION        0.78          0.253        0.937
  YS02006556           JUNCTION        0.53          0.170        1.180
  YS02006558           JUNCTION        0.48          0.144        1.256
  YS02163301           JUNCTION        0.97          0.650        0.380
  YS02163601           JUNCTION        1.03          0.635        0.445
  YS02164001           JUNCTION        0.91          0.510        0.590
  
  
  *********************
  Node Flooding Summary
  *********************
  
  Flooding refers to all water that overflows a node, whether it ponds or not.
  --------------------------------------------------------------------------
                                                             Total   Maximum
                                 Maximum   Time of Max       Flood    Ponded
                        Hours       Rate    Occurrence      Volume     Depth
  Node                 Flooded       LPS   days hr:min    10^6 ltr    Meters
  --------------------------------------------------------------------------
  WS02006240              0.01     91.00      0  01:22       0.000     0.000
  WS02006242              0.01     74.64      0  01:22       0.000     0.000
  WS02006243              0.01    152.96      0  01:23       0.000     0.000
  WS02006245              0.01     31.70      0  01:23       0.000     0.000
  WS02006247              0.01    219.10      0  01:23       0.000     0.000
  WS02006248              0.82    304.22      0  01:23       0.481     0.000
  WS02006249              1.75    584.10      0  01:27       2.440     0.000
  WS02006251              0.01    248.31      0  01:24       0.000     0.000
  WS02006252              0.01    245.63      0  00:00       0.000     0.000
  WS02006256              1.99    293.19      0  00:00       0.931     0.000
  YS02001580              0.01     24.29      0  01:23       0.000     0.000
  YS02001583              0.01     30.84      0  01:23       0.000     0.000
  YS02001586              0.01     20.92      0  01:23       0.000     0.000
  YS02001600              0.01      0.44      0  01:23       0.000     0.000
  YS02001601              0.62    222.46      0  01:38       0.301     0.000
  YS02001602              0.01      1.83      0  01:41       0.000     0.000
  
  
  **********************
  Storage Volume Summary
  **********************
  
  --------------------------------------------------------------------------------------------------
                         Average     Avg  Evap Exfil       Maximum     Max    Time of Max    Maximum
                          Volume    Pcnt  Pcnt  Pcnt        Volume    Pcnt     Occurrence    Outflow
  Storage Unit           1000 m3    Full  Loss  Loss       1000 m3    Full    days hr:min        LPS
  --------------------------------------------------------------------------------------------------
  CC-storage               2.414      38     0     0         4.088      64       0  02:00    1783.53
  JK-storage               0.111      38     0     0         0.212      73       0  01:43    2300.00
  XR-storage               0.939      65     0     0         1.111      77       0  08:00     380.00
  
  
  ***********************
  Outfall Loading Summary
  ***********************
  
  -----------------------------------------------------------
                         Flow       Avg       Max       Total
                         Freq      Flow      Flow      Volume
  Outfall Node           Pcnt       LPS       LPS    10^6 ltr
  -----------------------------------------------------------
  CC-1                  35.86    683.00    683.00       4.279
  CC-2                  32.06    683.00    683.00       3.885
  JK-1                  12.53   1000.00   1000.00       1.628
  JK-2                   0.20   1000.00   1000.00       0.048
  WSC                   99.94    594.46   1223.22      13.001
  -----------------------------------------------------------
  System                36.12   3960.46   1223.22      22.840
  
  
  ********************
  Link Flow Summary
  ********************
  
  -----------------------------------------------------------------------------
                                 Maximum  Time of Max   Maximum    Max/    Max/
                                  |Flow|   Occurrence   |Veloc|    Full    Full
  Link                 Type          LPS  days hr:min     m/sec    Flow   Depth
  -----------------------------------------------------------------------------
  1                    CONDUIT   1223.22     0  01:43      3.51    0.43    0.46
  HS02004478WS02006287 CONDUIT   1020.43     0  01:38      2.44    0.29    0.46
  HS02004479HS02004480 CONDUIT    107.04     0  01:35      0.48    0.10    0.71
  HS02004480HS02004478 CONDUIT    772.09     0  01:37      1.79    3.25    0.62
  HS02004770HS02004777 CONDUIT    265.41     0  01:36      0.59    0.49    0.64
  HS02004777HS02004785 CONDUIT    265.30     0  01:37      0.70    0.33    0.54
  HS02004785HS02004788 CONDUIT    265.47     0  01:37      1.06    2.00    0.36
  HS02004788HS02004792 CONDUIT    344.81     0  01:37      1.39    0.23    0.36
  HS02004792HS02004799 CONDUIT    621.16     0  01:37      1.43    0.38    0.62
  HS02004799HS02004480 CONDUIT    665.76     0  01:37      1.27    0.84    0.75
  HS02004802HS02004478 CONDUIT    250.21     0  01:40      0.59    0.22    0.61
  HS02004807HS02004802 CONDUIT    249.56     0  01:39      0.53    0.48    0.67
  HS02004817HS02004807 CONDUIT    194.49     0  01:41      0.34    0.12    0.83
  HS02004817HS02004824 CONDUIT    193.79     0  01:40      0.42    0.09    0.66
  HS02004824HS02004830 CONDUIT     91.76     0  01:39      0.63    0.12    0.29
  HS02004830HS02004837 CONDUIT     91.46     0  01:37      0.69    0.09    0.20
  HS02004837HS02004842 CONDUIT     30.60     0  01:55      0.41    0.02    0.38
  HS02004842HS02004848 CONDUIT     30.24     0  01:53      0.12    0.02    0.37
  HS02004848HS02004852 CONDUIT     59.76     0  01:37      0.62    0.07    0.14
  HS02004852HS02004856 CONDUIT     59.83     0  01:38      0.44    0.07    0.20
  HS02004856HS02004862 CONDUIT     82.42     0  01:37      0.68    0.08    0.17
  HS02004862HS02004870 CONDUIT    121.62     0  01:38      0.95    0.13    0.18
  HS02004870HS02004876 CONDUIT    152.71     0  01:37      0.97    0.10    0.22
  HS02004876HS02004881 CONDUIT    190.43     0  01:37      1.46    2.03    0.19
  HS02004881HS02006253 CONDUIT    262.35     0  01:24      2.75    0.05    0.57
  HS02004901HS02004770 CONDUIT     49.31     0  01:36      0.11    0.19    0.63
  WS02001211WS02001212 CONDUIT    208.97     0  03:15      0.54    0.16    0.62
  WS02001212WS02001213 CONDUIT    214.15     0  03:15      1.04    0.33    0.48
  WS02001213WS02003059 CONDUIT    221.73     0  03:15      0.47    0.37    0.81
  WS02003059WS02003060 CONDUIT    231.26     0  03:15      0.66    0.15    0.73
  WS02003060WS02003069 CONDUIT   1221.81     0  01:39      1.99    0.48    0.53
  WS02003066WSF200     CONDUIT   1008.75     0  01:40      3.24    0.17    0.33
  WS02003067WS02003066 CONDUIT   1008.71     0  01:38      1.72    0.32    0.51
  WS02003069WS02003072 CONDUIT   1221.63     0  01:40      1.77    0.59    0.59
  WS02003072WS02003073 CONDUIT   1221.42     0  01:41      1.90    2.64    0.55
  WS02004138WS02004139 CONDUIT    190.63     0  00:29      2.18    0.04    0.38
  WS02004139WS02001211 CONDUIT    201.51     0  01:31      0.54    0.25    0.55
  WS02004401WS02004402 CONDUIT   1015.37     0  01:27      1.29    1.22    1.00
  WS02004402WS02004403 CONDUIT   1015.54     0  01:26      1.29    1.46    1.00
  WS02004403WS02004404 CONDUIT   1017.28     0  01:26      1.30    0.74    1.00
  WS02004404WS02004405 CONDUIT   1019.39     0  01:26      1.39    9.99    1.00
  WS02004405WS02004406 CONDUIT   1020.94     0  01:26      1.35    2.01    1.00
  WS02004406WS02004407 CONDUIT   1022.63     0  01:26      1.72    0.46    0.72
  WS02004407WS02004409 CONDUIT   1015.90     0  01:26      1.95    0.36    0.72
  WS02004409WS02004410 CONDUIT   1008.71     0  01:38      1.37    1.30    1.00
  WS02004410WS02004411 CONDUIT   1008.73     0  01:38      1.32    1.38    0.99
  WS02004411WS02004412 CONDUIT   1008.71     0  01:39      1.30    1.43    0.96
  WS02004412WS02004413 CONDUIT   1008.68     0  01:39      1.29    0.68    0.97
  WS02004413WS02003067 CONDUIT   1008.68     0  01:39      1.64    0.43    0.73
  WS02006109WS02006110 CONDUIT    999.09     0  01:25      1.99    1.92    1.00
  WS02006110WS02006113 CONDUIT    999.16     0  01:25      2.05    0.91    1.00
  WS02006111WS02006112 CONDUIT    977.66     0  01:26      1.95    0.46    1.00
  WS02006112WS02006115 CONDUIT   1017.38     0  01:26      1.30    0.60    1.00
  WS02006113WS02006111 CONDUIT    977.92     0  01:26      2.74    1.17    1.00
  WS02006115WS02006116 CONDUIT   1016.31     0  01:26      1.29    1.30    1.00
  WS02006116WS02004401 CONDUIT   1015.76     0  01:27      1.29    1.40    1.00
  WS02006228WS02006109 CONDUIT    997.77     0  01:25      1.98    4.36    1.00
  WS02006229WS02006228 CONDUIT    997.97     0  01:25      1.99    3.31    1.00
  WS02006230WS02006229 CONDUIT    470.54     0  03:07      1.22   10.47    1.00
  WS02006231WS02006230 CONDUIT    459.87     0  03:07      1.34    6.98    1.00
  WS02006232WS02006231 CONDUIT    459.80     0  03:07      1.19    0.96    1.00
  WS02006234WS02006232 CONDUIT    459.73     0  03:07      1.41    0.93    1.00
  WS02006235WS02006234 CONDUIT    459.63     0  03:07      1.23    4.85    1.00
  WS02006238WS02006235 CONDUIT    392.04     0  03:08      1.45    0.88    1.00
  WS02006239WS02006238 CONDUIT    393.29     0  03:08      1.12    1.26    1.00
  WS02006240WS02006239 CONDUIT    394.33     0  03:08      1.26    1.24    1.00
  WS02006242WS02006240 CONDUIT    394.23     0  03:08      1.14    1.57    1.00
  WS02006243WS02006242 CONDUIT    394.36     0  03:08      1.34    0.84    1.00
  WS02006245WS02006243 CONDUIT    394.26     0  03:08      1.39    1.17    1.00
  WS02006247WS02006245 CONDUIT    393.93     0  03:08      1.37    3.12    1.00
  WS02006248WS02006247 CONDUIT    392.78     0  03:08      1.38    0.85    1.00
  WS02006249WS02006248 CONDUIT    393.64     0  03:08      1.38    2.16    1.00
  WS02006251WS02006249 CONDUIT    641.19     0  01:27      1.68    1.85    1.00
  WS02006252WS02006251 CONDUIT    410.94     0  01:27     24.89    1.51    1.00
  WS02006253WS02006251 CONDUIT    330.70     0  03:09      1.19    0.99    1.00
  WS02006256WS02006235 CONDUIT    288.93     0  00:00      4.23    3.06    1.00
  WS02006280WS02006229 CONDUIT   1021.48     0  01:38      4.41    0.22    0.75
  WS02006284WS02006280 CONDUIT   1020.66     0  01:38      2.92    0.43    0.46
  WS02006287WS02006284 CONDUIT   1020.49     0  01:38      2.70    0.47    0.49
  WSF200WS02003060     CONDUIT   1009.37     0  01:40      2.38    0.22    0.44
  YS02001580YS02001583 CONDUIT     58.54     0  01:23      0.46    0.23    1.00
  YS02001583YS02001586 CONDUIT     78.06     0  01:22      0.35    0.12    1.00
  YS02001586YS02001590 CONDUIT    257.09     0  01:36      1.25    0.45    1.00
  YS02001590YS02001593 CONDUIT    257.01     0  01:37      1.05    1.61    1.00
  YS02001593YS02001596 CONDUIT    257.14     0  01:37      1.72    0.41    1.00
  YS02001596YS02001600 CONDUIT    257.11     0  01:36      1.18    0.50    1.00
  YS02001600YS02001601 CONDUIT    257.03     0  01:37      0.91    0.44    1.00
  YS02001601YS02001602 CONDUIT    502.38     0  01:23      1.78    1.81    1.00
  YS02001602YS02001605 CONDUIT    502.40     0  01:23      1.78   10.63    1.00
  YS02001605YS02001607 CONDUIT    502.30     0  01:23      1.78    2.75    1.00
  YS02001607YS02001610 CONDUIT    501.50     0  01:23      0.71    0.48    1.00
  YS02001610YS02001613 CONDUIT    501.59     0  01:23      0.64    0.58    1.00
  YS02001613YS02001616 CONDUIT    506.07     0  01:22      0.68    0.43    1.00
  YS02001616YS02001619 CONDUIT    506.92     0  01:22      0.73    0.88    1.00
  YS02001619YS02001622 CONDUIT    885.39     0  01:33      1.54    1.30    1.00
  YS02001622YS02001625 CONDUIT    885.35     0  01:32      1.13    0.47    1.00
  YS02001625YS02001629 CONDUIT    885.39     0  01:32      1.13    0.42    1.00
  YS02001629YS02163301 CONDUIT    885.04     0  01:32      1.13    1.09    1.00
  YS02001633YS02163601 CONDUIT   1186.86     0  01:32      1.51    1.25    1.00
  YS02001641YS02001644 CONDUIT   1186.88     0  01:32      1.51    3.84    1.00
  YS02001644YS02001647 CONDUIT   1438.04     0  01:32      1.97    0.84    1.00
  YS02001647YS02001649 CONDUIT   1429.65     0  01:32      2.25    0.75    1.00
  YS02001649YS02001757 CONDUIT   1635.75     0  01:31      2.40    0.99    1.00
  YS02001652YS02001649 CONDUIT    239.16     0  01:25      1.16    0.12    1.00
  YS02001655YS02001652 CONDUIT    243.52     0  01:40      1.58    0.12    0.89
  YS02001658YS02001655 CONDUIT    262.14     0  01:40      1.78    0.11    0.62
  YS02001661YS02001658 CONDUIT    242.21     0  01:36      1.98    0.10    0.34
  YS02001664YS02001661 CONDUIT    240.42     0  01:33      1.74    0.08    0.23
  YS02001745YS02001748 CONDUIT    139.59     0  01:31      1.76    0.05    0.25
  YS02001748YS02001751 CONDUIT    154.27     0  01:38      1.47    0.08    0.53
  YS02001751YS02001754 CONDUIT    142.13     0  01:44      1.46    0.07    0.75
  YS02001754YS02001757 CONDUIT    147.42     0  01:26      0.88    0.06    0.95
  YS02001757CaochengTiaoxuchi CONDUIT   2174.53     0  01:27      2.94    0.94    1.00
  YS02001759YS02001757 CONDUIT    464.22     0  01:27      1.22    0.33    1.00
  YS02001762YS02001759 CONDUIT    274.34     0  01:39      0.71    0.32    1.00
  YS02001765YS02001762 CONDUIT    274.82     0  01:27      0.83    0.26    1.00
  YS02001767YS02001765 CONDUIT    286.90     0  01:27      0.90    0.36    1.00
  YS02001770YS02001767 CONDUIT    294.16     0  01:28      0.83    1.17    1.00
  YS02001774YS02001770 CONDUIT     62.76     0  01:35      0.61    0.04    1.00
  YS02001779YS02001774 CONDUIT     38.63     0  01:36      0.17    0.02    0.92
  YS02001783YS02001784 CONDUIT    867.60     0  01:37      1.74    1.20    0.98
  YS02001784YS02001785 CONDUIT    868.72     0  01:37      1.87    2.02    0.87
  YS02001786YS02001788 CONDUIT    868.81     0  01:36      2.31    1.67    0.70
  YS02001788YS02001790 CONDUIT    870.35     0  01:36      2.42    0.64    0.68
  YS02001790YS02001791 CONDUIT    918.12     0  01:38      3.00    1.00    0.59
  YS02001791YS02001793 CONDUIT    879.71     0  01:35      6.05    0.38    0.33
  YS02001793JiankangQianchi CONDUIT    879.44     0  01:35      1.83    0.07    0.59
  YS02001882YS02001884 CONDUIT     32.61     0  01:16      0.33    0.04    0.86
  YS02001884YS02001887 CONDUIT     68.79     0  01:14      0.26    0.09    0.96
  YS02001887YS02001890 CONDUIT    210.46     0  01:28      0.31    0.36    1.00
  YS02001890YS02001895 CONDUIT    209.32     0  01:33      0.33    0.10    0.90
  YS02001895YS02001898 CONDUIT    213.55     0  01:27      0.60    0.37    0.79
  YS02001898YS02001901 CONDUIT    216.03     0  01:28      0.52    0.14    0.88
  YS02001901YS02001904 CONDUIT    211.85     0  01:32      0.53    0.33    0.93
  YS02001904YS02001907 CONDUIT    204.43     0  01:41      0.30    0.07    0.96
  YS02001907YS02006553 CONDUIT    595.96     0  01:39      0.66    0.70    1.00
  YS02001910YS02001907 CONDUIT    394.73     0  01:38      0.50    0.22    1.00
  YS02001915YS02001910 CONDUIT    394.63     0  01:39      1.00    0.20    0.92
  YS02001918YS02001915 CONDUIT    153.15     0  01:40      0.44    0.08    0.67
  YS02001920YS02001918 CONDUIT    146.69     0  01:40      0.69    0.14    0.52
  YS02001923YS02001920 CONDUIT    143.00     0  01:35      0.75    0.06    0.43
  YS02001926YS02001923 CONDUIT    140.27     0  01:34      0.87    0.20    0.26
  YS02001929YS02001926 CONDUIT    140.25     0  01:34      0.96    0.07    0.24
  YS02006553YS02006556 CONDUIT    596.67     0  01:38      0.76    0.51    1.00
  YS02006556YS02006558 CONDUIT    596.61     0  01:38      0.76    0.47    1.00
  YS02006558YS02006561 CONDUIT    867.97     0  01:36      3.43    1.92    0.84
  YS02006561YS02001783 CONDUIT    867.51     0  01:36      2.15    0.45    0.75
  YS02163301YS02001633 CONDUIT    884.78     0  01:32      1.13    0.83    1.00
  YS02163601YS02164001 CONDUIT   1187.04     0  01:32      1.51    1.05    1.00
  YS02164001YS02001641 CONDUIT   1187.20     0  01:32      1.51    1.62    1.00
  YSB1154YSB6556       CONDUIT     61.76     0  01:34      0.17    0.11    0.87
  YSB1171HS02004479    CONDUIT    107.43     0  01:34      0.54    0.07    0.80
  YSB1174YSB1171       CONDUIT     46.97     0  01:32      0.13    0.07    0.94
  YSB6556YSB1171       CONDUIT     61.33     0  01:35      0.17    0.06    0.90
  CC-R1                PUMP       683.00     0  00:00              1.00
  CC-R2                PUMP       683.00     0  00:00              1.00
  CC-S1                PUMP       200.00     0  00:00              1.00
  CC-S2                PUMP       200.00     0  00:00              1.00
  JK-R1                PUMP      1000.00     0  00:00              1.00
  JK-R2                PUMP      1000.00     0  00:00              1.00
  JK-S                 PUMP       300.00     0  00:00              1.00
  XR-1                 PUMP        95.00     0  00:00              1.00
  XR-2                 PUMP        95.00     0  00:00              1.00
  XR-3                 PUMP        95.00     0  00:00              1.00
  XR-4                 PUMP        95.00     0  00:00              1.00
  
  
  ***************************
  Flow Classification Summary
  ***************************
  
  -------------------------------------------------------------------------------------
                      Adjusted    ---------- Fraction of Time in Flow Class ---------- 
                       /Actual         Up    Down  Sub   Sup   Up    Down  Norm  Inlet 
  Conduit               Length    Dry  Dry   Dry   Crit  Crit  Crit  Crit  Ltd   Ctrl  
  -------------------------------------------------------------------------------------
  1                       1.00   0.00  0.00  0.00  0.00  1.00  0.00  0.00  0.38  0.00
  HS02004478WS02006287    1.00   0.10  0.00  0.00  0.44  0.46  0.00  0.00  0.61  0.00
  HS02004479HS02004480    1.00   0.04  0.00  0.00  0.96  0.00  0.00  0.00  0.10  0.00
  HS02004480HS02004478    1.00   0.09  0.00  0.00  0.39  0.00  0.00  0.52  0.00  0.00
  HS02004770HS02004777    1.00   0.00  0.09  0.00  0.91  0.00  0.00  0.00  0.01  0.00
  HS02004777HS02004785    1.00   0.00  0.00  0.00  1.00  0.00  0.00  0.00  0.10  0.00
  HS02004785HS02004788    1.00   0.00  0.00  0.00  1.00  0.00  0.00  0.00  0.00  0.00
  HS02004788HS02004792    1.00   0.00  0.00  0.00  0.99  0.01  0.00  0.00  0.98  0.00
  HS02004792HS02004799    1.00   0.00  0.00  0.00  0.99  0.01  0.00  0.00  0.95  0.00
  HS02004799HS02004480    1.00   0.00  0.04  0.00  0.90  0.00  0.06  0.00  0.00  0.00
  HS02004802HS02004478    1.00   0.09  0.00  0.00  0.91  0.00  0.00  0.00  0.01  0.00
  HS02004807HS02004802    1.00   0.09  0.00  0.00  0.90  0.00  0.00  0.01  0.00  0.00
  HS02004817HS02004807    1.00   0.00  0.09  0.00  0.91  0.00  0.00  0.00  0.01  0.00
  HS02004817HS02004824    1.00   0.00  0.00  0.00  1.00  0.00  0.00  0.00  0.84  0.00
  HS02004824HS02004830    1.00   0.00  0.00  0.00  1.00  0.00  0.00  0.00  0.02  0.00
  HS02004830HS02004837    1.00   0.00  0.00  0.00  1.00  0.00  0.00  0.00  0.99  0.00
  HS02004837HS02004842    1.00   0.00  0.00  0.00  0.99  0.01  0.00  0.00  0.11  0.00
  HS02004842HS02004848    1.00   0.00  0.09  0.00  0.91  0.00  0.00  0.00  0.58  0.00
  HS02004848HS02004852    1.00   0.09  0.00  0.00  0.91  0.00  0.00  0.00  0.84  0.00
  HS02004852HS02004856    1.00   0.09  0.00  0.00  0.91  0.00  0.00  0.00  0.72  0.00
  HS02004856HS02004862    1.00   0.00  0.10  0.00  0.90  0.00  0.00  0.00  0.86  0.00
  HS02004862HS02004870    1.00   0.00  0.00  0.00  1.00  0.00  0.00  0.00  0.02  0.00
  HS02004870HS02004876    1.00   0.01  0.00  0.00  0.98  0.01  0.00  0.00  0.95  0.00
  HS02004876HS02004881    1.00   0.02  0.00  0.00  0.58  0.40  0.00  0.00  0.00  0.00
  HS02004881HS02006253    1.00   0.03  0.02  0.00  0.39  0.03  0.00  0.53  0.23  0.00
  HS02004901HS02004770    1.00   0.09  0.00  0.00  0.91  0.00  0.00  0.00  0.00  0.00
  WS02001211WS02001212    1.00   0.00  0.03  0.00  0.97  0.00  0.00  0.00  0.00  0.00
  WS02001212WS02001213    1.00   0.03  0.00  0.00  0.44  0.00  0.53  0.00  0.00  0.00
  WS02001213WS02003059    1.00   0.00  0.00  0.00  0.99  0.00  0.00  0.00  0.00  0.00
  WS02003059WS02003060    1.00   0.00  0.00  0.00  1.00  0.00  0.00  0.00  0.03  0.00
  WS02003060WS02003069    1.00   0.00  0.00  0.00  0.98  0.02  0.00  0.00  0.56  0.00
  WS02003066WSF200        1.00   0.06  0.00  0.00  0.00  0.94  0.00  0.00  0.69  0.00
  WS02003067WS02003066    1.00   0.06  0.00  0.00  0.94  0.00  0.00  0.00  0.00  0.00
  WS02003069WS02003072    1.00   0.00  0.00  0.00  1.00  0.00  0.00  0.00  0.69  0.00
  WS02003072WS02003073    1.00   0.00  0.00  0.00  0.00  0.00  0.00  1.00  0.00  0.00
  WS02004138WS02004139    1.00   0.00  0.01  0.00  0.97  0.01  0.00  0.02  0.98  0.00
  WS02004139WS02001211    1.00   0.00  0.00  0.00  0.99  0.00  0.00  0.00  0.00  0.00
  WS02004401WS02004402    1.00   0.03  0.00  0.00  0.97  0.00  0.00  0.00  0.00  0.00
  WS02004402WS02004403    1.00   0.03  0.00  0.00  0.97  0.00  0.00  0.00  0.00  0.00
  WS02004403WS02004404    1.00   0.00  0.03  0.00  0.97  0.00  0.00  0.00  0.00  0.00
  WS02004404WS02004405    1.00   0.00  0.00  0.00  1.00  0.00  0.00  0.00  0.01  0.00
  WS02004405WS02004406    1.00   0.00  0.00  0.00  1.00  0.00  0.00  0.00  0.00  0.00
  WS02004406WS02004407    1.00   0.00  0.04  0.00  0.96  0.00  0.00  0.00  0.00  0.00
  WS02004407WS02004409    1.00   0.04  0.00  0.00  0.94  0.02  0.00  0.00  0.89  0.00
  WS02004409WS02004410    1.00   0.04  0.00  0.00  0.96  0.00  0.00  0.00  0.00  0.00
  WS02004410WS02004411    1.00   0.04  0.00  0.00  0.96  0.00  0.00  0.00  0.00  0.00
  WS02004411WS02004412    1.00   0.04  0.00  0.00  0.96  0.00  0.00  0.00  0.00  0.00
  WS02004412WS02004413    1.00   0.05  0.00  0.00  0.95  0.00  0.00  0.00  0.00  0.00
  WS02004413WS02003067    1.00   0.05  0.01  0.00  0.00  0.00  0.94  0.00  0.00  0.00
  WS02006109WS02006110    1.00   0.00  0.01  0.00  0.98  0.00  0.01  0.00  0.00  0.00
  WS02006110WS02006113    1.00   0.01  0.01  0.00  0.98  0.00  0.00  0.00  0.00  0.00
  WS02006111WS02006112    1.00   0.02  0.00  0.00  0.97  0.00  0.00  0.00  0.75  0.00
  WS02006112WS02006115    1.00   0.02  0.00  0.00  0.97  0.00  0.00  0.00  0.00  0.00
  WS02006113WS02006111    1.00   0.02  0.00  0.00  0.36  0.62  0.00  0.00  0.08  0.00
  WS02006115WS02006116    1.00   0.03  0.00  0.00  0.96  0.00  0.00  0.01  0.00  0.00
  WS02006116WS02004401    1.00   0.03  0.00  0.00  0.97  0.00  0.00  0.00  0.00  0.00
  WS02006228WS02006109    1.00   0.00  0.00  0.00  1.00  0.00  0.00  0.00  0.00  0.00
  WS02006229WS02006228    1.00   0.00  0.00  0.00  0.99  0.00  0.00  0.01  0.00  0.00
  WS02006230WS02006229    1.00   0.00  0.00  0.00  0.98  0.00  0.00  0.02  0.01  0.00
  WS02006231WS02006230    1.00   0.00  0.00  0.00  0.48  0.00  0.52  0.00  0.00  0.00
  WS02006232WS02006231    1.00   0.00  0.00  0.00  0.99  0.00  0.00  0.00  0.00  0.00
  WS02006234WS02006232    1.00   0.00  0.00  0.00  1.00  0.00  0.00  0.00  0.39  0.00
  WS02006235WS02006234    1.00   0.00  0.00  0.00  0.69  0.00  0.31  0.00  0.00  0.00
  WS02006238WS02006235    1.00   0.00  0.00  0.00  1.00  0.00  0.00  0.00  0.00  0.00
  WS02006239WS02006238    1.00   0.00  0.00  0.00  1.00  0.00  0.00  0.00  0.51  0.00
  WS02006240WS02006239    1.00   0.00  0.00  0.00  0.61  0.00  0.00  0.39  0.00  0.00
  WS02006242WS02006240    1.00   0.00  0.00  0.00  0.98  0.00  0.01  0.00  0.00  0.00
  WS02006243WS02006242    1.00   0.00  0.00  0.00  0.99  0.00  0.00  0.01  0.67  0.00
  WS02006245WS02006243    1.00   0.00  0.00  0.00  0.89  0.00  0.00  0.10  0.00  0.00
  WS02006247WS02006245    1.00   0.00  0.00  0.00  0.99  0.00  0.00  0.01  0.00  0.00
  WS02006248WS02006247    1.00   0.00  0.00  0.00  1.00  0.00  0.00  0.00  0.65  0.00
  WS02006249WS02006248    1.00   0.00  0.00  0.00  0.51  0.00  0.49  0.00  0.00  0.00
  WS02006251WS02006249    1.00   0.00  0.00  0.00  1.00  0.00  0.00  0.00  0.70  0.00
  WS02006252WS02006251    1.00   0.00  0.59  0.00  0.37  0.00  0.04  0.00  0.00  0.00
  WS02006253WS02006251    1.00   0.00  0.00  0.00  0.98  0.00  0.02  0.00  0.00  0.00
  WS02006256WS02006235    1.00   0.00  0.00  0.00  1.00  0.00  0.00  0.00  0.00  0.00
  WS02006280WS02006229    1.00   0.10  0.00  0.00  0.21  0.15  0.00  0.55  0.05  0.00
  WS02006284WS02006280    1.00   0.10  0.00  0.00  0.00  0.00  0.00  0.90  0.00  0.00
  WS02006287WS02006284    1.00   0.08  0.02  0.00  0.35  0.55  0.00  0.00  0.63  0.00
  WSF200WS02003060        1.00   0.00  0.06  0.00  0.53  0.41  0.00  0.00  0.67  0.00
  YS02001580YS02001583    1.00   0.13  0.51  0.00  0.35  0.00  0.00  0.00  0.73  0.00
  YS02001583YS02001586    1.00   0.32  0.23  0.00  0.45  0.00  0.00  0.00  0.73  0.00
  YS02001586YS02001590    1.00   0.09  0.00  0.00  0.60  0.02  0.00  0.28  0.32  0.00
  YS02001590YS02001593    1.00   0.09  0.00  0.00  0.26  0.00  0.65  0.00  0.00  0.00
  YS02001593YS02001596    1.00   0.09  0.00  0.00  0.30  0.01  0.00  0.59  0.03  0.00
  YS02001596YS02001600    1.00   0.09  0.00  0.00  0.43  0.01  0.00  0.46  0.07  0.00
  YS02001600YS02001601    1.00   0.09  0.00  0.00  0.91  0.00  0.00  0.00  0.58  0.00
  YS02001601YS02001602    1.00   0.09  0.00  0.00  0.91  0.00  0.00  0.00  0.00  0.00
  YS02001602YS02001605    1.00   0.09  0.00  0.00  0.91  0.00  0.00  0.00  0.00  0.00
  YS02001605YS02001607    1.00   0.09  0.00  0.00  0.91  0.00  0.00  0.00  0.00  0.00
  YS02001607YS02001610    1.00   0.09  0.00  0.00  0.91  0.00  0.00  0.00  0.00  0.00
  YS02001610YS02001613    1.00   0.09  0.00  0.00  0.91  0.00  0.00  0.00  0.00  0.00
  YS02001613YS02001616    1.00   0.09  0.00  0.00  0.91  0.00  0.00  0.00  0.00  0.00
  YS02001616YS02001619    1.00   0.09  0.00  0.00  0.91  0.00  0.00  0.00  0.00  0.00
  YS02001619YS02001622    1.00   0.09  0.00  0.00  0.91  0.00  0.00  0.00  0.35  0.00
  YS02001622YS02001625    1.00   0.09  0.00  0.00  0.91  0.00  0.00  0.00  0.01  0.00
  YS02001625YS02001629    1.00   0.09  0.01  0.00  0.34  0.00  0.55  0.00  0.00  0.00
  YS02001629YS02163301    1.00   0.09  0.00  0.00  0.90  0.00  0.00  0.00  0.00  0.00
  YS02001633YS02163601    1.00   0.00  0.01  0.00  0.99  0.00  0.00  0.00  0.13  0.00
  YS02001641YS02001644    1.00   0.00  0.01  0.00  0.99  0.00  0.00  0.00  0.00  0.00
  YS02001644YS02001647    1.00   0.00  0.10  0.00  0.90  0.00  0.00  0.00  0.00  0.00
  YS02001647YS02001649    1.00   0.00  0.10  0.00  0.58  0.32  0.00  0.00  0.58  0.00
  YS02001649YS02001757    1.00   0.00  0.00  0.00  0.67  0.33  0.00  0.00  0.54  0.00
  YS02001652YS02001649    1.00   0.00  0.00  0.00  0.99  0.01  0.00  0.00  0.72  0.00
  YS02001655YS02001652    1.00   0.00  0.00  0.00  0.41  0.02  0.00  0.57  0.11  0.00
  YS02001658YS02001655    1.00   0.00  0.09  0.00  0.60  0.30  0.00  0.00  0.74  0.00
  YS02001661YS02001658    1.00   0.09  0.00  0.00  0.41  0.50  0.00  0.00  0.81  0.00
  YS02001664YS02001661    1.00   0.09  0.00  0.00  0.54  0.37  0.00  0.00  0.87  0.00
  YS02001745YS02001748    1.00   0.00  0.00  0.00  0.11  0.03  0.00  0.86  0.08  0.00
  YS02001748YS02001751    1.00   0.00  0.00  0.00  0.71  0.29  0.00  0.00  0.82  0.00
  YS02001751YS02001754    1.00   0.00  0.00  0.00  0.30  0.01  0.00  0.69  0.04  0.00
  YS02001754YS02001757    1.00   0.00  0.00  0.00  1.00  0.00  0.00  0.00  0.82  0.00
  YS02001757CaochengTiaoxuchi    1.00   0.00  0.00  0.00  0.95  0.05  0.00  0.00  0.82  0.00
  YS02001759YS02001757    1.00   0.00  0.00  0.00  0.99  0.00  0.00  0.00  0.62  0.00
  YS02001762YS02001759    1.00   0.00  0.00  0.00  1.00  0.00  0.00  0.00  0.01  0.00
  YS02001765YS02001762    1.00   0.00  0.00  0.00  1.00  0.00  0.00  0.00  0.71  0.00
  YS02001767YS02001765    1.00   0.00  0.00  0.00  1.00  0.00  0.00  0.00  0.00  0.00
  YS02001770YS02001767    1.00   0.00  0.00  0.00  1.00  0.00  0.00  0.00  0.00  0.00
  YS02001774YS02001770    1.00   0.00  0.09  0.00  0.74  0.00  0.16  0.00  0.00  0.00
  YS02001779YS02001774    1.00   0.00  0.00  0.00  1.00  0.00  0.00  0.00  0.75  0.00
  YS02001783YS02001784    1.00   0.00  0.10  0.00  0.90  0.00  0.00  0.00  0.57  0.00
  YS02001784YS02001785    1.00   0.00  0.00  0.00  1.00  0.00  0.00  0.00  0.13  0.00
  YS02001786YS02001788    1.00   0.00  0.00  0.00  0.49  0.51  0.00  0.00  0.00  0.00
  YS02001788YS02001790    1.00   0.00  0.00  0.00  0.10  0.90  0.00  0.00  0.77  0.00
  YS02001790YS02001791    1.00   0.00  0.00  0.00  0.01  0.99  0.00  0.00  0.22  0.00
  YS02001791YS02001793    1.00   0.00  0.00  0.00  0.00  1.00  0.00  0.00  0.00  0.00
  YS02001793JiankangQianchi    1.00   0.00  0.00  0.00  1.00  0.00  0.00  0.00  1.00  0.00
  YS02001882YS02001884    1.00   0.09  0.00  0.00  0.90  0.00  0.00  0.00  0.00  0.00
  YS02001884YS02001887    1.00   0.06  0.03  0.00  0.91  0.00  0.00  0.00  0.00  0.00
  YS02001887YS02001890    1.00   0.00  0.00  0.00  0.96  0.00  0.03  0.00  0.00  0.00
  YS02001890YS02001895    1.00   0.00  0.09  0.00  0.90  0.00  0.00  0.00  0.00  0.00
  YS02001895YS02001898    1.00   0.10  0.00  0.00  0.90  0.00  0.00  0.00  0.00  0.00
  YS02001898YS02001901    1.00   0.10  0.00  0.00  0.90  0.00  0.00  0.00  0.00  0.00
  YS02001901YS02001904    1.00   0.10  0.00  0.00  0.90  0.00  0.00  0.00  0.00  0.00
  YS02001904YS02001907    1.00   0.00  0.09  0.00  0.90  0.00  0.00  0.00  0.00  0.00
  YS02001907YS02006553    1.00   0.00  0.03  0.00  0.97  0.00  0.00  0.00  0.00  0.00
  YS02001910YS02001907    1.00   0.00  0.00  0.00  0.96  0.00  0.00  0.03  0.10  0.00
  YS02001915YS02001910    1.00   0.00  0.00  0.00  0.97  0.03  0.00  0.00  0.11  0.00
  YS02001918YS02001915    1.00   0.00  0.00  0.00  0.97  0.02  0.00  0.00  0.74  0.00
  YS02001920YS02001918    1.00   0.00  0.00  0.00  1.00  0.00  0.00  0.00  0.00  0.00
  YS02001923YS02001920    1.00   0.00  0.00  0.00  1.00  0.00  0.00  0.00  0.95  0.00
  YS02001926YS02001923    1.00   0.00  0.07  0.00  0.00  0.00  0.93  0.00  0.00  0.00
  YS02001929YS02001926    1.00   0.00  0.09  0.00  0.91  0.00  0.00  0.00  0.87  0.00
  YS02006553YS02006556    1.00   0.01  0.00  0.00  0.99  0.00  0.00  0.00  0.03  0.00
  YS02006556YS02006558    1.00   0.00  0.00  0.00  1.00  0.00  0.00  0.00  0.00  0.00
  YS02006558YS02006561    1.00   0.10  0.00  0.00  0.00  0.90  0.00  0.00  0.20  0.00
  YS02006561YS02001783    1.00   0.10  0.00  0.00  0.15  0.75  0.00  0.00  0.70  0.00
  YS02163301YS02001633    1.00   0.00  0.09  0.00  0.91  0.00  0.00  0.00  0.00  0.00
  YS02163601YS02164001    1.00   0.00  0.07  0.00  0.93  0.00  0.00  0.00  0.00  0.00
  YS02164001YS02001641    1.00   0.01  0.06  0.00  0.93  0.00  0.00  0.00  0.05  0.00
  YSB1154YSB6556          1.00   0.09  0.00  0.00  0.91  0.00  0.00  0.00  0.01  0.00
  YSB1171HS02004479       1.00   0.04  0.00  0.00  0.94  0.00  0.00  0.01  0.09  0.00
  YSB1174YSB1171          1.00   0.05  0.02  0.00  0.92  0.00  0.00  0.00  0.00  0.00
  YSB6556YSB1171          1.00   0.05  0.04  0.00  0.91  0.00  0.00  0.00  0.00  0.00
  
  
  *************************
  Conduit Surcharge Summary
  *************************
  
  ----------------------------------------------------------------------------
                                                           Hours        Hours 
                         --------- Hours Full --------   Above Full   Capacity
  Conduit                Both Ends  Upstream  Dnstream   Normal Flow   Limited
  ----------------------------------------------------------------------------
  HS02004480HS02004478        0.01      0.01      0.01      1.77         0.01
  HS02004785HS02004788        0.01      0.01      0.01      1.20         0.01
  HS02004817HS02004807        0.01      0.01      0.81      0.01         0.01
  HS02004817HS02004824        0.01      0.01      0.81      0.01         0.01
  HS02004876HS02004881        0.01      0.01      0.01      1.14         0.01
  HS02004881HS02006253        0.01      0.01      1.74      0.01         0.01
  WS02003072WS02003073        0.01      0.01      0.01      2.12         0.01
  WS02004401WS02004402        1.75      1.75      1.76      1.26         1.25
  WS02004402WS02004403        1.76      1.76      1.76      1.75         1.74
  WS02004403WS02004404        1.76      1.76      1.80      0.01         0.01
  WS02004404WS02004405        1.79      1.80      1.79      2.81         1.79
  WS02004405WS02004406        1.78      1.79      1.78      1.87         1.78
  WS02004406WS02004407        0.01      0.01      1.78      0.01         0.01
  WS02004407WS02004409        0.01      0.01      0.52      0.01         0.01
  WS02004409WS02004410        0.20      0.52      0.20      1.64         0.20
  WS02004410WS02004411        0.01      0.20      0.01      1.72         0.01
  WS02004411WS02004412        0.01      0.01      0.01      1.75         0.01
  WS02004412WS02004413        0.01      0.01      1.12      0.01         0.01
  WS02004413WS02003067        0.01      0.01      1.12      0.01         0.01
  WS02006109WS02006110        1.84      1.84      1.99      1.84         0.01
  WS02006110WS02006113        0.99      0.99      1.98      0.01         0.01
  WS02006111WS02006112        0.93      0.93      2.07      0.01         0.01
  WS02006112WS02006115        1.66      1.66      1.88      0.01         0.01
  WS02006113WS02006111        0.96      0.99      0.96      1.22         0.96
  WS02006115WS02006116        1.68      1.68      1.69      1.62         1.60
  WS02006116WS02004401        1.75      1.75      1.75      1.74         1.73
  WS02006228WS02006109        1.96      1.99      1.96      2.29         1.96
  WS02006229WS02006228        1.96      1.97      1.96      2.09         1.96
  WS02006230WS02006229        2.00      2.01      2.01      2.51         1.57
  WS02006231WS02006230        1.79      1.79      1.82      2.10         0.22
  WS02006232WS02006231        1.81      1.81      1.86      0.01         0.01
  WS02006234WS02006232        1.83      1.83      1.86      0.01         0.01
  WS02006235WS02006234        1.81      1.81      1.82      1.78         0.14
  WS02006238WS02006235        1.83      1.83      1.84      0.01         0.02
  WS02006239WS02006238        1.82      1.82      1.83      0.10         0.03
  WS02006240WS02006239        1.80      1.81      1.81      0.10         0.02
  WS02006242WS02006240        1.80      1.80      1.81      0.25         0.01
  WS02006243WS02006242        1.79      1.79      1.81      0.01         0.01
  WS02006245WS02006243        1.78      1.78      1.78      0.11         0.02
  WS02006247WS02006245        1.78      1.78      1.78      1.45         0.90
  WS02006248WS02006247        1.77      1.77      1.78      0.01         0.01
  WS02006249WS02006248        1.76      1.77      1.77      0.76         0.01
  WS02006251WS02006249        1.76      1.76      1.77      1.85         1.73
  WS02006252WS02006251        1.87      1.87      1.88      1.83         0.01
  WS02006253WS02006251        1.76      1.76      1.76      0.01         0.01
  WS02006256WS02006235        2.49      2.50      4.23      2.00         0.01
  WS02006280WS02006229        0.01      0.01      0.01      0.01         0.01
  YS02001580YS02001583        0.21      0.21      0.52      0.01         0.01
  YS02001583YS02001586        0.24      0.24      0.72      0.01         0.01
  YS02001586YS02001590        0.73      0.73      0.86      0.01         0.01
  YS02001590YS02001593        0.86      0.86      0.89      0.91         0.01
  YS02001593YS02001596        0.88      0.88      1.03      0.01         0.01
  YS02001596YS02001600        1.09      1.09      1.29      0.01         0.01
  YS02001600YS02001601        1.36      1.36      1.87      0.01         0.01
  YS02001601YS02001602        1.64      1.64      1.90      1.34         0.01
  YS02001602YS02001605        1.53      1.53      1.64      2.36         0.01
  YS02001605YS02001607        1.45      1.53      1.45      1.86         1.45
  YS02001607YS02001610        0.81      0.81      0.86      0.01         0.01
  YS02001610YS02001613        0.80      0.80      0.86      0.01         0.01
  YS02001613YS02001616        0.72      0.72      0.80      0.01         0.01
  YS02001616YS02001619        0.70      0.70      0.72      0.01         0.01
  YS02001619YS02001622        0.69      0.70      0.69      0.90         0.69
  YS02001622YS02001625        0.69      0.69      0.98      0.01         0.01
  YS02001625YS02001629        0.49      0.49      0.98      0.01         0.01
  YS02001629YS02163301        0.96      0.96      0.97      0.43         0.43
  YS02001633YS02163601        1.00      1.00      1.03      0.71         0.70
  YS02001641YS02001644        0.84      0.90      0.84      1.90         0.84
  YS02001644YS02001647        0.37      0.37      0.84      0.01         0.01
  YS02001647YS02001649        0.37      0.37      0.55      0.01         0.01
  YS02001649YS02001757        0.55      0.55      0.65      0.01         0.01
  YS02001652YS02001649        0.11      0.11      0.55      0.01         0.01
  YS02001655YS02001652        0.01      0.01      0.01      0.01         0.01
  YS02001754YS02001757        0.01      0.01      0.65      0.01         0.01
  YS02001757CaochengTiaoxuchi        0.65      0.65      1.33      0.01         0.01
  YS02001759YS02001757        0.47      0.47      0.65      0.01         0.01
  YS02001762YS02001759        0.42      0.42      0.47      0.01         0.01
  YS02001765YS02001762        0.34      0.34      0.42      0.01         0.01
  YS02001767YS02001765        0.25      0.25      0.34      0.01         0.01
  YS02001770YS02001767        0.23      0.24      0.25      0.26         0.10
  YS02001774YS02001770        0.04      0.04      0.40      0.01         0.01
  YS02001779YS02001774        0.01      0.01      0.40      0.01         0.01
  YS02001783YS02001784        0.01      0.01      0.01      0.60         0.01
  YS02001784YS02001785        0.01      0.01      0.01      1.04         0.01
  YS02001786YS02001788        0.01      0.01      0.01      0.83         0.01
  YS02001793JiankangQianchi        0.01      0.01      7.69      0.01         0.01
  YS02001887YS02001890        0.01      0.01      0.13      0.01         0.01
  YS02001890YS02001895        0.01      0.01      0.22      0.01         0.01
  YS02001904YS02001907        0.01      0.01      0.79      0.01         0.01
  YS02001907YS02006553        1.05      1.05      1.15      0.01         0.01
  YS02001910YS02001907        0.22      0.22      0.74      0.01         0.01
  YS02001915YS02001910        0.01      0.01      0.22      0.01         0.01
  YS02006553YS02006556        0.53      0.53      0.78      0.01         0.01
  YS02006556YS02006558        0.65      0.65      0.82      0.01         0.01
  YS02006558YS02006561        0.01      0.48      0.01      0.97         0.01
  YS02163301YS02001633        0.97      0.97      1.02      0.01         0.01
  YS02163601YS02164001        0.91      0.91      1.03      0.24         0.01
  YS02164001YS02001641        0.90      0.91      0.90      1.07         0.90
  YSB1174YSB1171              0.01      0.01      0.68      0.01         0.01
  YSB6556YSB1171              0.01      0.01      0.96      0.01         0.01
  
  
  ***************
  Pumping Summary
  ***************
  
  ---------------------------------------------------------------------------------------------------------
                                                  Min       Avg       Max     Total     Power    % Time Off
                        Percent   Number of      Flow      Flow      Flow    Volume     Usage    Pump Curve
  Pump                 Utilized   Start-Ups       LPS       LPS       LPS  10^6 ltr     Kw-hr    Low   High
  ---------------------------------------------------------------------------------------------------------
  CC-R1                   21.75           2      0.00    683.00    683.00     4.278     77.69    0.0   28.6
  CC-R2                   19.75           2      0.00    683.00    683.00     3.885     70.41    0.0   31.5
  CC-S1                   23.95           2      0.00    200.00    200.00     1.379      8.66    0.0    0.0
  CC-S2                   22.88           2      0.00    200.00    200.00     1.318      8.26    0.0    0.0
  JK-R1                    5.65           6      0.00   1000.00   1000.00     1.627     15.47    0.0    0.0
  JK-R2                    0.16           1      0.00   1000.00   1000.00     0.047      0.36    0.0    0.0
  JK-S                    24.94           3      0.00    300.00    300.00     2.155     35.47    0.0    0.0
  XR-1                    97.91           2      0.00     95.00     95.00     2.679      9.62    0.0    0.0
  XR-2                    93.94           2      0.00     95.00     95.00     2.570      8.78    0.0    0.0
  XR-3                     0.00           1      0.00     95.00     95.00     0.000      0.00    0.0    0.0
  XR-4                     0.00           1      0.00     95.00     95.00     0.000      0.00    0.0    0.0
  

  Analysis begun on:  Thu Jul 20 11:19:31 2023
  Analysis ended on:  Thu Jul 20 11:19:37 2023
  Total elapsed time: 00:00:06