
  OWA STORM WATER MANAGEMENT MODEL - VERSION v5.1.14 (OWA 2022-07-31)
  --------------------------------------------------------------

  WARNING 04: minimum elevation drop used for Conduit WS02004404WS02004405
  WARNING 03: negative offset ignored for Link YS02001904YS02001907
  
  *********************************************************
  NOTE: The summary statistics displayed in this report are
  based on results found at every computational time step,  
  not just on results from each reporting time step.
  *********************************************************
  
  ****************
  Analysis Options
  ****************
  Flow Units ............... LPS
  Process Models:
    Rainfall/Runoff ........ YES
    RDII ................... NO
    Snowmelt ............... NO
    Groundwater ............ NO
    Flow Routing ........... YES
    Ponding Allowed ........ NO
    Water Quality .......... NO
  Infiltration Method ...... HORTON
  Flow Routing Method ...... DYNWAVE
  Surcharge Method ......... EXTRAN
  Starting Date ............ 08/28/2015 08:00:00
  Ending Date .............. 08/28/2015 16:00:00
  Antecedent Dry Days ...... 8.0
  Report Time Step ......... 00:01:00
  Wet Time Step ............ 00:01:00
  Dry Time Step ............ 00:01:00
  Routing Time Step ........ 30.00 sec
  Variable Time Step ....... YES
  Maximum Trials ........... 8
  Number of Threads ........ 4
  Head Tolerance ........... 0.001500 m
  
  
  **************************        Volume         Depth
  Runoff Quantity Continuity     hectare-m            mm
  **************************     ---------       -------
  Total Precipitation ......         5.410        89.304
  Evaporation Loss .........         0.000         0.000
  Infiltration Loss ........         0.253         4.170
  Surface Runoff ...........         5.098        84.151
  Final Storage ............         0.061         1.008
  Continuity Error (%) .....        -0.028
  
  
  **************************        Volume        Volume
  Flow Routing Continuity        hectare-m      10^6 ltr
  **************************     ---------     ---------
  Dry Weather Inflow .......         0.630         6.296
  Wet Weather Inflow .......         5.097        50.975
  Groundwater Inflow .......         0.000         0.000
  RDII Inflow ..............         0.000         0.000
  External Inflow ..........         0.105         1.045
  External Outflow .........         3.221        32.207
  Flooding Loss ............         2.802        28.016
  Evaporation Loss .........         0.000         0.000
  Exfiltration Loss ........         0.000         0.000
  Initial Stored Volume ....         0.303         3.031
  Final Stored Volume ......         0.177         1.771
  Continuity Error (%) .....        -1.054
  
  
  *************************
  Highest Continuity Errors
  *************************
  Node YS02001583 (-16.25%)
  Node JK-storage (-12.37%)
  Node YS02001884 (5.12%)
  Node WS02006256 (2.65%)
  Node HS02004842 (1.17%)
  
  
  ***************************
  Time-Step Critical Elements
  ***************************
  Link WS02006280WS02006229 (42.24%)
  Link YS02001793JiankangQianchi (27.79%)
  Link WS02006238WS02006235 (10.67%)
  Link WS02003066WSF200 (3.61%)
  Link WS02006252WS02006251 (1.97%)
  
  
  ********************************
  Highest Flow Instability Indexes
  ********************************
  Link WS02004404WS02004405 (38)
  Link WS02006229WS02006228 (34)
  Link WS02006113WS02006111 (34)
  Link WS02004403WS02004404 (33)
  Link WS02006252WS02006251 (30)
  
  
  *************************
  Routing Time Step Summary
  *************************
  Minimum Time Step           :     0.01 sec
  Average Time Step           :     2.37 sec
  Maximum Time Step           :     6.46 sec
  Percent in Steady State     :    -0.00
  Average Iterations per Step :     4.70
  Percent Not Converging      :    34.30
  
  
  ***************************
  Subcatchment Runoff Summary
  ***************************
  
  ------------------------------------------------------------------------------------------------------------------------------
                            Total      Total      Total      Total     Imperv       Perv      Total       Total     Peak  Runoff
                           Precip      Runon       Evap      Infil     Runoff     Runoff     Runoff      Runoff   Runoff   Coeff
  Subcatchment                 mm         mm         mm         mm         mm         mm         mm    10^6 ltr      LPS
  ------------------------------------------------------------------------------------------------------------------------------
  sub0                      99.00       0.00       0.00       1.04      90.84       5.89      96.73        0.08    55.97   0.977
  sub1                      99.00       0.00       0.00       1.81      86.87       9.08      95.95        0.64   406.82   0.969
  sub2                      99.00       0.00       0.00       8.24      61.47      28.40      89.87        0.84   466.84   0.908
  sub3                      99.00       0.00       0.00       8.98      61.43      27.65      89.08        2.01  1030.26   0.900
  sub4                      99.00       0.00       0.00       2.05      86.69       8.84      95.53        1.99  1077.05   0.965
  sub5                      99.00       0.00       0.00       1.10      90.77       5.83      96.60        1.09   697.26   0.976
  sub7                      99.00       0.00       0.00       1.40      88.86       7.52      96.38        0.32   218.00   0.973
  sub8                      99.00       0.00       0.00       1.42      88.85       7.50      96.34        0.62   406.09   0.973
  sub9                      99.00       0.00       0.00       1.42      88.84       7.49      96.34        0.46   304.44   0.973
  sub10                     99.00       0.00       0.00       1.27      89.81       6.66      96.46        1.06   685.45   0.974
  sub11                     99.00       0.00       0.00       1.24      89.83       6.68      96.51        1.12   743.66   0.975
  sub12                     99.00       0.00       0.00       2.02      84.97      10.85      95.82        0.84   582.80   0.968
  sub14                     99.00       0.00       0.00       1.42      88.84       7.49      96.33        0.92   600.48   0.973
  sub15                     99.00       0.00       0.00       5.72      68.34      23.99      92.32        1.59   993.74   0.933
  sub16                     99.00       0.00       0.00       5.87      65.43      26.80      92.24        0.97   640.71   0.932
  sub17                     99.00       0.00       0.00       5.73      66.41      25.96      92.36        0.79   522.64   0.933
  sub22                     99.00       0.00       0.00       8.70      55.66      33.87      89.53        5.66  3442.26   0.904
  sub23                     99.00       0.00       0.00       7.07      61.52      29.57      91.09        4.34  2752.85   0.920
  sub60                     81.29       0.00       0.00       1.85      70.35       7.91      78.26        1.03   633.18   0.963
  sub61                     81.29       0.00       0.00       2.67      66.36      11.15      77.51        1.42   870.88   0.953
  sub62                     81.29       0.00       0.00       1.23      73.52       5.28      78.79        2.16  1220.92   0.969
  sub63                     81.29       0.00       0.00       4.89      56.76      18.70      75.46        1.71   948.69   0.928
  sub64                     81.29       0.00       0.00       2.48      67.90       9.72      77.63        1.86   975.23   0.955
  sub65                     81.29       0.00       0.00       2.14      69.48       8.43      77.91        2.14  1084.15   0.958
  sub66                     81.29       0.00       0.00       5.96      56.65      17.62      74.27        3.46  1379.27   0.914
  sub67                     81.29       0.00       0.00       1.19      73.56       5.32      78.88        1.47   976.69   0.970
  sub68                     81.29       0.00       0.00       2.21      68.74       9.17      77.91        2.14  1254.15   0.958
  sub69                     81.29       0.00       0.00       1.96      69.00      10.24      79.23        2.93  1459.46   0.975
  sub70                     81.29       0.00       0.00       6.41      53.49      21.23      74.73        2.16   781.26   0.919
  sub71                     81.29       0.00       0.00       1.26      73.47       5.25      78.72        2.06  1056.31   0.968
  sub72                     81.29       0.00       0.00       1.12      74.21       4.57      78.78        1.08   503.04   0.969
  
  
  ******************
  Node Depth Summary
  ******************
  
  ---------------------------------------------------------------------------------
                                 Average  Maximum  Maximum  Time of Max    Reported
                                   Depth    Depth      HGL   Occurrence   Max Depth
  Node                 Type       Meters   Meters   Meters  days hr:min      Meters
  ---------------------------------------------------------------------------------
  HS02004478           JUNCTION     0.34     1.61    10.84     0  02:20        1.61
  HS02004479           JUNCTION     0.43     1.70    10.90     0  02:14        1.67
  HS02004480           JUNCTION     0.40     1.70    10.94     0  02:20        1.70
  HS02004770           JUNCTION     0.38     1.42    11.25     0  02:10        1.42
  HS02004777           JUNCTION     0.40     1.48    11.28     0  02:10        1.48
  HS02004785           JUNCTION     0.29     1.49    11.39     0  02:10        1.39
  HS02004788           JUNCTION     0.26     1.42    11.32     0  02:10        1.42
  HS02004792           JUNCTION     0.34     1.60    11.12     0  02:14        1.60
  HS02004799           JUNCTION     0.47     1.76    10.97     0  02:14        1.76
  HS02004802           JUNCTION     0.45     1.80    10.93     0  02:28        1.80
  HS02004807           JUNCTION     0.42     1.92    11.09     0  02:27        1.92
  HS02004817           JUNCTION     0.73     2.41    11.26     0  02:31        2.41
  HS02004824           JUNCTION     0.30     2.01    11.41     0  02:31        2.01
  HS02004830           JUNCTION     0.29     2.01    11.47     0  02:34        2.01
  HS02004837           JUNCTION     0.25     1.94    11.52     0  02:34        1.94
  HS02004842           JUNCTION     0.54     2.22    11.49     0  02:14        2.22
  HS02004848           JUNCTION     0.23     1.94    11.55     0  02:34        1.94
  HS02004852           JUNCTION     0.24     2.00    11.51     0  02:34        2.00
  HS02004856           JUNCTION     0.30     2.05    11.47     0  02:34        2.05
  HS02004862           JUNCTION     0.26     2.00    11.38     0  02:31        2.00
  HS02004870           JUNCTION     0.25     2.06    11.35     0  02:36        2.06
  HS02004876           JUNCTION     0.31     2.19    11.22     0  02:36        2.19
  HS02004881           JUNCTION     0.23     1.94    10.97     0  02:35        1.94
  HS02004901           JUNCTION     0.38     1.42    11.24     0  02:10        1.42
  WS02001211           JUNCTION     0.65     0.83     5.67     0  02:39        0.83
  WS02001212           JUNCTION     0.39     0.59     5.66     0  02:39        0.59
  WS02001213           JUNCTION     0.61     0.89     5.65     0  02:38        0.89
  WS02003059           JUNCTION     0.68     0.96     5.65     0  02:38        0.96
  WS02003060           JUNCTION     0.41     0.71     5.64     0  02:37        0.71
  WS02003066           JUNCTION     0.25     0.47     6.03     0  02:36        0.47
  WS02003067           JUNCTION     0.57     0.91     6.23     0  02:36        0.90
  WS02003069           JUNCTION     0.46     0.80     5.39     0  02:37        0.80
  WS02003072           JUNCTION     0.51     0.83     5.20     0  02:38        0.83
  WS02003073           JUNCTION     0.31     0.53     4.60     0  02:38        0.53
  WS02004138           JUNCTION     0.13     0.14     7.39     0  00:32        0.14
  WS02004139           JUNCTION     0.58     0.77     5.68     0  02:39        0.77
  WS02004401           JUNCTION     0.88     2.10     8.10     0  02:36        2.10
  WS02004402           JUNCTION     0.89     2.02     7.98     0  02:36        2.01
  WS02004403           JUNCTION     0.88     1.93     7.86     0  02:36        1.92
  WS02004404           JUNCTION     0.94     1.93     7.78     0  02:36        1.93
  WS02004405           JUNCTION     0.92     1.87     7.72     0  02:36        1.86
  WS02004406           JUNCTION     0.90     1.75     7.58     0  02:36        1.73
  WS02004407           JUNCTION     0.33     1.07     7.38     0  02:36        1.07
  WS02004409           JUNCTION     0.62     1.50     7.27     0  02:20        1.50
  WS02004410           JUNCTION     0.61     1.38     7.10     0  02:36        1.37
  WS02004411           JUNCTION     0.61     1.27     6.95     0  02:36        1.26
  WS02004412           JUNCTION     0.60     1.15     6.79     0  02:36        1.15
  WS02004413           JUNCTION     0.72     1.17     6.64     0  02:37        1.17
  WS02006109           JUNCTION     1.19     2.64     9.26     0  02:11        2.64
  WS02006110           JUNCTION     1.09     2.47     9.06     0  02:36        2.47
  WS02006111           JUNCTION     0.58     1.97     8.68     0  02:35        1.97
  WS02006112           JUNCTION     1.14     2.66     8.54     0  02:35        2.66
  WS02006113           JUNCTION     0.65     1.98     8.87     0  02:35        1.97
  WS02006115           JUNCTION     0.83     2.22     8.36     0  02:36        2.22
  WS02006116           JUNCTION     0.89     2.20     8.24     0  02:36        2.19
  WS02006228           JUNCTION     1.28     3.03     9.68     0  02:20        3.03
  WS02006229           JUNCTION     1.31     3.24     9.93     0  02:20        3.24
  WS02006230           JUNCTION     1.19     2.65     9.39     0  01:28        2.65
  WS02006231           JUNCTION     0.89     2.24     9.36     0  01:28        2.24
  WS02006232           JUNCTION     0.97     2.18     9.22     0  01:42        2.18
  WS02006234           JUNCTION     0.84     1.96     9.12     0  01:29        1.96
  WS02006235           JUNCTION     0.84     2.00     9.16     0  01:28        2.00
  WS02006238           JUNCTION     0.86     2.15     9.29     0  01:30        2.15
  WS02006239           JUNCTION     0.79     2.03     9.24     0  01:30        2.03
  WS02006240           JUNCTION     0.73     1.99     9.29     0  02:06        1.99
  WS02006242           JUNCTION     0.75     1.55     8.82     0  01:28        1.55
  WS02006243           JUNCTION     0.64     1.48     8.90     0  01:28        1.48
  WS02006245           JUNCTION     0.61     1.44     8.92     0  01:33        1.44
  WS02006247           JUNCTION     0.61     1.47     8.97     0  01:28        1.35
  WS02006248           JUNCTION     0.55     1.10     8.69     0  01:28        1.10
  WS02006249           JUNCTION     0.56     1.09     8.69     0  01:28        1.09
  WS02006251           JUNCTION     0.75     2.18     9.85     0  02:35        2.18
  WS02006252           JUNCTION     0.52     1.50     9.74     0  00:00        1.50
  WS02006253           JUNCTION     0.88     3.21    10.85     0  02:36        3.20
  WS02006256           JUNCTION     1.11     2.35     9.28     0  00:00        2.35
  WS02006280           JUNCTION     0.44     1.81    10.08     0  02:27        1.81
  WS02006284           JUNCTION     0.68     2.02    10.42     0  02:20        2.02
  WS02006287           JUNCTION     0.42     1.89    10.84     0  02:20        1.89
  WSF200               JUNCTION     0.25     0.54     5.78     0  02:36        0.54
  YS02001580           JUNCTION     0.17     1.05     9.59     0  01:24        0.79
  YS02001583           JUNCTION     0.20     1.14     9.64     0  01:24        0.85
  YS02001586           JUNCTION     0.31     1.13     9.30     0  01:23        1.13
  YS02001590           JUNCTION     0.43     1.40     9.26     0  01:23        1.39
  YS02001593           JUNCTION     0.36     1.46     9.32     0  01:23        1.29
  YS02001596           JUNCTION     0.48     1.79     9.20     0  01:23        1.68
  YS02001600           JUNCTION     0.57     1.87     9.00     0  01:23        1.87
  YS02001601           JUNCTION     0.76     2.06     8.90     0  01:23        2.06
  YS02001602           JUNCTION     0.66     1.87     8.77     0  01:24        1.87
  YS02001605           JUNCTION     0.60     1.78     8.68     0  01:24        1.78
  YS02001607           JUNCTION     0.56     1.68     8.53     0  01:24        1.68
  YS02001610           JUNCTION     0.60     1.68     8.48     0  01:24        1.68
  YS02001613           JUNCTION     0.56     1.70     8.54     0  01:24        1.67
  YS02001616           JUNCTION     0.50     1.61     8.52     0  01:24        1.61
  YS02001619           JUNCTION     0.48     1.61     8.54     0  01:24        1.61
  YS02001622           JUNCTION     0.47     1.62     8.52     0  01:24        1.59
  YS02001625           JUNCTION     0.71     1.78     8.38     0  01:24        1.78
  YS02001629           JUNCTION     0.60     1.85     8.40     0  01:24        1.85
  YS02001633           JUNCTION     0.67     2.08     8.53     0  01:26        2.08
  YS02001641           JUNCTION     0.63     1.98     8.42     0  01:25        1.94
  YS02001644           JUNCTION     0.61     1.92     8.35     0  01:25        1.92
  YS02001647           JUNCTION     0.39     1.89     8.50     0  01:25        1.79
  YS02001649           JUNCTION     0.43     2.05     8.44     0  01:25        2.05
  YS02001652           JUNCTION     0.32     2.16     8.76     0  01:25        1.91
  YS02001655           JUNCTION     0.24     2.20     9.05     0  01:25        1.72
  YS02001658           JUNCTION     0.17     2.30     9.44     0  01:25        1.50
  YS02001661           JUNCTION     0.19     2.46     9.86     0  01:26        1.31
  YS02001664           JUNCTION     0.08     2.03     9.96     0  01:26        0.87
  YS02001745           JUNCTION     0.09     2.35     9.87     0  01:26        0.86
  YS02001748           JUNCTION     0.15     2.27     9.35     0  01:26        1.30
  YS02001751           JUNCTION     0.19     2.20     9.08     0  01:26        1.48
  YS02001754           JUNCTION     0.26     2.20     8.81     0  01:25        1.74
  YS02001757           JUNCTION     0.43     2.21     8.47     0  01:26        2.09
  YS02001759           JUNCTION     0.38     2.20     8.56     0  01:26        2.05
  YS02001762           JUNCTION     0.37     2.15     8.55     0  01:25        2.10
  YS02001765           JUNCTION     0.35     2.10     8.55     0  01:25        2.10
  YS02001767           JUNCTION     0.34     2.03     8.52     0  01:25        2.03
  YS02001770           JUNCTION     0.36     1.95     8.44     0  01:25        1.95
  YS02001774           JUNCTION     0.42     2.05     8.47     0  01:25        1.99
  YS02001779           JUNCTION     0.25     1.68     8.37     0  01:25        1.68
  YS02001783           JUNCTION     0.35     1.44     7.58     0  01:25        1.23
  YS02001784           JUNCTION     0.35     1.39     7.46     0  01:25        1.11
  YS02001786           JUNCTION     0.29     1.58     7.61     0  01:25        0.87
  YS02001788           JUNCTION     0.21     0.65     6.63     0  01:25        0.62
  YS02001790           JUNCTION     0.25     0.72     6.37     0  01:26        0.71
  YS02001791           JUNCTION     0.15     0.44     5.91     0  01:31        0.43
  YS02001793           JUNCTION     0.09     0.26     5.09     0  01:26        0.25
  YS02001882           JUNCTION     0.43     1.83     8.55     0  01:24        1.71
  YS02001884           JUNCTION     0.52     1.93     8.55     0  01:24        1.86
  YS02001887           JUNCTION     0.59     1.96     8.50     0  01:26        1.96
  YS02001890           JUNCTION     0.62     1.81     8.32     0  01:24        1.81
  YS02001895           JUNCTION     0.40     1.75     8.50     0  01:24        1.56
  YS02001898           JUNCTION     0.41     1.77     8.51     0  01:24        1.55
  YS02001901           JUNCTION     0.52     1.77     8.38     0  01:24        1.67
  YS02001904           JUNCTION     0.50     1.67     8.30     0  01:24        1.64
  YS02001907           JUNCTION     0.80     1.96     8.25     0  01:24        1.96
  YS02001910           JUNCTION     0.62     2.08     8.58     0  01:24        2.02
  YS02001915           JUNCTION     0.44     2.00     8.72     0  01:24        2.00
  YS02001918           JUNCTION     0.28     1.81     8.88     0  01:25        1.81
  YS02001920           JUNCTION     0.35     2.14     9.15     0  01:25        2.09
  YS02001923           JUNCTION     0.22     2.03     9.29     0  01:25        2.03
  YS02001926           JUNCTION     0.24     1.90     9.35     0  01:25        1.90
  YS02001929           JUNCTION     0.15     1.78     9.47     0  01:25        1.78
  YS02006553           JUNCTION     0.80     2.04     8.32     0  01:26        2.04
  YS02006556           JUNCTION     0.78     2.08     8.39     0  01:26        2.08
  YS02006558           JUNCTION     0.82     2.23     8.49     0  01:26        2.23
  YS02006561           JUNCTION     0.22     1.15     7.81     0  01:25        0.89
  YS02163301           JUNCTION     0.62     1.96     8.47     0  01:26        1.96
  YS02163601           JUNCTION     0.69     2.08     8.48     0  01:25        2.02
  YS02164001           JUNCTION     0.62     2.00     8.46     0  01:25        1.93
  YSB1154              JUNCTION     0.57     2.10    11.16     0  02:20        2.10
  YSB1171              JUNCTION     0.70     1.95    10.85     0  02:14        1.95
  YSB1174              JUNCTION     0.52     1.95    11.06     0  02:20        1.95
  YSB6556              JUNCTION     0.46     1.80    10.97     0  02:20        1.80
  CC-1                 OUTFALL      0.00     0.00     0.00     0  00:00        0.00
  CC-2                 OUTFALL      0.00     0.00     0.00     0  00:00        0.00
  JK-1                 OUTFALL      0.00     0.00     0.00     0  00:00        0.00
  JK-2                 OUTFALL      0.00     0.00     0.00     0  00:00        0.00
  WSC                  OUTFALL      0.31     0.53     1.20     0  02:39        0.53
  CC-storage           STORAGE      0.38     1.17     6.67     0  02:17        1.17
  JK-storage           STORAGE      0.05     2.99     3.79     0  00:00        0.68
  XR-storage           STORAGE      7.78     9.26     7.26     0  08:00        9.26
  
  
  *******************
  Node Inflow Summary
  *******************
  
  -------------------------------------------------------------------------------------------------
                                  Maximum  Maximum                  Lateral       Total        Flow
                                  Lateral    Total  Time of Max      Inflow      Inflow     Balance
                                   Inflow   Inflow   Occurrence      Volume      Volume       Error
  Node                 Type           LPS      LPS  days hr:min    10^6 ltr    10^6 ltr     Percent
  -------------------------------------------------------------------------------------------------
  HS02004478           JUNCTION      0.00  2303.49     0  02:30           0        11.3      -0.008
  HS02004479           JUNCTION      0.00   383.87     0  02:20           0        1.13       0.053
  HS02004480           JUNCTION      0.00  1993.53     0  02:14           0        8.21       0.021
  HS02004770           JUNCTION   2752.85  2814.28     0  02:37        4.35        4.62       0.058
  HS02004777           JUNCTION      0.03   671.20     0  02:12    0.000864        2.22       0.234
  HS02004785           JUNCTION      0.15   671.26     0  02:12     0.00432        2.22       0.019
  HS02004788           JUNCTION    995.41   995.41     0  02:37        1.64        3.85       0.006
  HS02004792           JUNCTION   3442.54  4377.44     0  02:37        5.66        9.51      -0.003
  HS02004799           JUNCTION    600.48  1742.58     0  02:37       0.917         7.6       0.038
  HS02004802           JUNCTION      0.00  1233.36     0  02:32           0        3.34       0.114
  HS02004807           JUNCTION    743.66  1940.47     0  02:37        1.12        3.77       0.107
  HS02004817           JUNCTION      0.60  1197.05     0  02:40      0.0173         2.7       0.613
  HS02004824           JUNCTION   1077.10  1678.13     0  02:37        1.99        3.11       0.011
  HS02004830           JUNCTION      0.15   609.26     0  02:36     0.00432        1.35       0.084
  HS02004837           JUNCTION    691.80   691.80     0  02:37        1.25        1.75       0.032
  HS02004842           JUNCTION      0.00   671.35     0  02:14           0         1.1       1.181
  HS02004848           JUNCTION   1030.26  1030.26     0  02:37        2.01        2.67       0.005
  HS02004852           JUNCTION      0.00   850.02     0  02:14           0        2.28      -0.013
  HS02004856           JUNCTION    304.44   893.25     0  02:13       0.463        2.74       0.049
  HS02004862           JUNCTION    467.04  1292.20     0  02:37       0.843        3.58       0.003
  HS02004870           JUNCTION    406.09  1270.73     0  02:41       0.616        4.02       0.007
  HS02004876           JUNCTION    406.82  1522.65     0  02:41       0.638        4.65       0.006
  HS02004881           JUNCTION    218.00  1699.49     0  02:36       0.325        4.98       0.000
  HS02004901           JUNCTION    640.71   906.50     0  02:37       0.966        1.54       0.099
  WS02001211           JUNCTION      7.35   210.23     0  03:12       0.212        5.44       0.611
  WS02001212           JUNCTION      0.00   222.28     0  03:12           0        5.41       0.273
  WS02001213           JUNCTION      0.00   230.71     0  03:11           0        5.39       0.350
  WS02003059           JUNCTION      0.00   240.03     0  03:11           0        5.38       0.601
  WS02003060           JUNCTION     16.53  1584.47     0  02:37       0.476        15.5       0.098
  WS02003066           JUNCTION      0.00  1388.77     0  02:36           0        9.65       0.019
  WS02003067           JUNCTION      0.00  1386.65     0  02:37           0        9.65       0.048
  WS02003069           JUNCTION      0.32  1582.83     0  02:37     0.00922        15.5       0.105
  WS02003072           JUNCTION      0.00  1582.09     0  02:38           0        15.4       0.141
  WS02003073           JUNCTION      1.82  1584.19     0  02:38      0.0524        15.5       0.147
  WS02004138           JUNCTION      0.00   380.00     0  00:00           0        5.25       0.053
  WS02004139           JUNCTION      0.32   190.32     0  00:32     0.00924        5.26       0.508
  WS02004401           JUNCTION      0.00  1385.68     0  02:37           0        9.76       0.112
  WS02004402           JUNCTION      0.00  1385.31     0  02:36           0        9.75       0.114
  WS02004403           JUNCTION      0.00  1386.00     0  02:36           0        9.74       0.110
  WS02004404           JUNCTION      0.16  1385.83     0  02:36     0.00467        9.73       0.093
  WS02004405           JUNCTION      0.04  1386.09     0  02:36      0.0011        9.73       0.133
  WS02004406           JUNCTION      0.00  1385.83     0  02:37           0        9.71       0.226
  WS02004407           JUNCTION      0.00  1385.44     0  02:37           0        9.69       0.017
  WS02004409           JUNCTION      0.00  1385.97     0  02:37           0        9.69       0.038
  WS02004410           JUNCTION      0.00  1385.98     0  02:37           0        9.69       0.059
  WS02004411           JUNCTION      0.00  1386.52     0  02:37           0        9.68       0.070
  WS02004412           JUNCTION      0.00  1386.32     0  02:37           0        9.67       0.090
  WS02004413           JUNCTION      0.00  1386.44     0  02:37           0        9.67       0.160
  WS02006109           JUNCTION      1.23  1288.68     0  02:31      0.0354        9.52       0.097
  WS02006110           JUNCTION      0.00  1130.00     0  02:53           0        9.01       0.087
  WS02006111           JUNCTION      0.00  1130.15     0  02:53           0           9       0.014
  WS02006112           JUNCTION    522.64  1385.67     0  02:36       0.793        9.79       0.213
  WS02006113           JUNCTION      0.00  1129.79     0  02:53           0           9       0.023
  WS02006115           JUNCTION      0.00  1385.86     0  02:36           0        9.77       0.081
  WS02006116           JUNCTION      0.00  1385.56     0  02:36           0        9.76       0.002
  WS02006228           JUNCTION      0.00  1287.64     0  02:37           0        9.49       0.046
  WS02006229           JUNCTION      0.00  2304.73     0  02:29           0        12.9       0.068
  WS02006230           JUNCTION     10.28  1025.62     0  02:29       0.296        5.15       0.135
  WS02006231           JUNCTION      0.00   467.12     0  02:53           0         3.4      -0.034
  WS02006232           JUNCTION      0.00   465.03     0  02:53           0         3.4       0.231
  WS02006234           JUNCTION      0.00   459.32     0  02:53           0        3.38      -0.178
  WS02006235           JUNCTION      0.00   447.48     0  01:28           0        3.27       0.322
  WS02006238           JUNCTION      0.00   414.23     0  02:53           0        3.11      -0.146
  WS02006239           JUNCTION      0.00   406.26     0  02:10           0        3.05      -0.132
  WS02006240           JUNCTION      0.00   406.43     0  02:10           0        3.04      -0.034
  WS02006242           JUNCTION      0.00   413.40     0  01:28           0        3.05      -0.035
  WS02006243           JUNCTION      0.00   453.18     0  01:27           0        2.54      -0.104
  WS02006245           JUNCTION      0.00   479.43     0  01:27           0        2.56       0.547
  WS02006247           JUNCTION      0.00   480.54     0  01:27           0        2.56      -0.022
  WS02006248           JUNCTION      0.00   496.56     0  01:26           0        2.89       0.000
  WS02006249           JUNCTION      0.00  1390.88     0  02:36           0        7.47       0.118
  WS02006251           JUNCTION      0.08  1756.44     0  02:36     0.00222        7.81      -0.021
  WS02006252           JUNCTION      0.00   765.85     0  02:36           0        3.79      -0.051
  WS02006253           JUNCTION     55.97  1756.14     0  02:36      0.0784        5.09       0.026
  WS02006256           JUNCTION      0.00   320.39     0  01:23           0       0.747       2.722
  WS02006280           JUNCTION      0.00  2302.49     0  02:29           0        11.3      -0.002
  WS02006284           JUNCTION      0.10  2302.33     0  02:37     0.00275        11.3       0.005
  WS02006287           JUNCTION      0.00  2303.80     0  02:41           0        11.3       0.006
  WSF200               JUNCTION      0.00  1389.32     0  02:36           0        9.64       0.009
  YS02001580           JUNCTION      0.00   317.97     0  01:24           0     0.00523      -6.572
  YS02001583           JUNCTION      0.00   316.92     0  01:24           0      0.0152     -13.980
  YS02001586           JUNCTION    781.26   781.26     0  01:32        2.16        2.17       0.086
  YS02001590           JUNCTION      0.00   318.11     0  01:42           0        1.59      -0.064
  YS02001593           JUNCTION      0.00   317.99     0  01:42           0        1.59       0.023
  YS02001596           JUNCTION      0.00   317.84     0  01:46           0        1.59      -0.004
  YS02001600           JUNCTION      0.00   317.87     0  01:32           0        1.59       0.012
  YS02001601           JUNCTION   1459.46  1776.97     0  01:30        2.93        4.52       0.024
  YS02001602           JUNCTION      0.00   603.70     0  01:24           0        2.65       0.020
  YS02001605           JUNCTION      0.00   603.72     0  01:24           0        2.52       0.024
  YS02001607           JUNCTION      0.00   603.48     0  01:24           0        2.52       0.057
  YS02001610           JUNCTION      0.00   769.49     0  01:31           0        2.89       0.083
  YS02001613           JUNCTION      0.00   534.82     0  01:24           0        2.31       0.045
  YS02001616           JUNCTION      0.00   669.85     0  01:24           0        2.32      -0.009
  YS02001619           JUNCTION   1379.27  1379.27     0  01:31        3.46         5.4       0.000
  YS02001622           JUNCTION      0.00   991.18     0  01:24           0           5      -0.010
  YS02001625           JUNCTION      0.00  1374.26     0  01:33           0        5.25       0.189
  YS02001629           JUNCTION      0.00   950.49     0  01:57           0        4.27       0.001
  YS02001633           JUNCTION   1084.35  1275.46     0  01:56        2.15         6.1       0.060
  YS02001641           JUNCTION      0.00  1276.78     0  01:57           0        5.79       0.054
  YS02001644           JUNCTION    975.27  1926.54     0  01:25        1.87        7.65       0.042
  YS02001647           JUNCTION      0.00  1921.59     0  01:25           0        7.12       0.007
  YS02001649           JUNCTION      0.00  2146.77     0  01:25           0        8.84       0.006
  YS02001652           JUNCTION      0.00  1063.61     0  01:27           0        1.71      -0.255
  YS02001655           JUNCTION      0.15  1063.20     0  01:27     0.00443        1.72       0.056
  YS02001658           JUNCTION      0.00  1062.88     0  01:27           0        1.71      -0.014
  YS02001661           JUNCTION      0.00  1061.28     0  01:27           0        1.71       0.015
  YS02001664           JUNCTION    948.69   948.69     0  01:28        1.71        1.71      -0.018
  YS02001745           JUNCTION    633.19   772.12     0  01:26        1.03        1.03       0.119
  YS02001748           JUNCTION      0.04  1048.27     0  01:26      0.0013        1.03      -0.317
  YS02001751           JUNCTION      0.01   919.77     0  01:25    0.000317        1.04       0.116
  YS02001754           JUNCTION      0.26   780.13     0  01:25     0.00749        1.05      -0.373
  YS02001757           JUNCTION      0.00  3433.37     0  01:26           0        13.2       0.049
  YS02001759           JUNCTION    870.92  1428.99     0  01:26        1.42        3.29      -0.022
  YS02001762           JUNCTION      0.00   824.98     0  01:36           0        1.87      -0.001
  YS02001765           JUNCTION      0.00   824.95     0  01:36           0        1.87      -0.041
  YS02001767           JUNCTION      0.54   824.80     0  01:36      0.0154        1.87      -0.034
  YS02001770           JUNCTION   1221.08  1221.08     0  01:28        2.16         2.2      -0.024
  YS02001774           JUNCTION      0.00   837.80     0  01:25           0       0.366       0.205
  YS02001779           JUNCTION      0.01   837.22     0  01:25    0.000144       0.323      -0.224
  YS02001783           JUNCTION      0.00  1172.56     0  01:26           0        4.78       0.005
  YS02001784           JUNCTION      1.06  1175.01     0  01:25      0.0305        4.81       0.012
  YS02001786           JUNCTION      0.06  1175.91     0  01:25     0.00162        4.81       0.014
  YS02001788           JUNCTION      0.07  1173.55     0  01:26     0.00204        4.82       0.006
  YS02001790           JUNCTION      0.15  1220.73     0  01:25     0.00446        4.82      -0.001
  YS02001791           JUNCTION      0.00  1291.29     0  01:26           0        4.82       0.001
  YS02001793           JUNCTION      0.00  1259.90     0  01:26           0        4.82      -0.054
  YS02001882           JUNCTION      0.00   193.16     0  01:24           0      0.0129       3.602
  YS02001884           JUNCTION      0.00   290.06     0  01:24           0      0.0491       5.397
  YS02001887           JUNCTION    977.14   977.80     0  01:27        1.48        1.51       0.298
  YS02001890           JUNCTION      0.00   977.41     0  01:27           0        1.47       0.349
  YS02001895           JUNCTION      0.00   776.65     0  01:24           0        1.28       0.120
  YS02001898           JUNCTION      0.00   682.69     0  01:24           0        1.28      -0.056
  YS02001901           JUNCTION      0.00   524.31     0  01:25           0        1.28       0.250
  YS02001904           JUNCTION      0.00   524.78     0  01:25           0         1.3       0.220
  YS02001907           JUNCTION      0.00  2162.06     0  01:28           0        4.54       0.404
  YS02001910           JUNCTION      0.00  1562.37     0  01:30           0        3.23       0.220
  YS02001915           JUNCTION   1056.33  1562.22     0  01:30        2.06        3.29       0.040
  YS02001918           JUNCTION      0.00  1129.02     0  01:25           0        1.26      -0.001
  YS02001920           JUNCTION      2.87  1059.20     0  01:25      0.0827        1.23      -0.012
  YS02001923           JUNCTION      0.04  1508.15     0  01:25     0.00109        1.13      -0.263
  YS02001926           JUNCTION      0.05  1548.60     0  01:25      0.0015         1.1      -0.065
  YS02001929           JUNCTION    503.04  1143.46     0  01:25        1.08        1.09      -0.207
  YS02006553           JUNCTION      0.00   790.14     0  01:55           0        2.71       0.441
  YS02006556           JUNCTION      0.00   790.29     0  01:55           0        2.73       0.305
  YS02006558           JUNCTION   1255.03  1255.03     0  01:28        2.17        4.85       0.075
  YS02006561           JUNCTION      0.00  1252.14     0  01:24           0        4.78      -0.004
  YS02163301           JUNCTION      0.00   952.89     0  01:57           0        4.27       0.037
  YS02163601           JUNCTION      0.11  1275.64     0  01:57     0.00317        5.78       0.087
  YS02164001           JUNCTION      0.00  1275.67     0  01:57           0        5.78       0.045
  YSB1154              JUNCTION    697.26   697.26     0  02:37        1.09         1.1       0.128
  YSB1171              JUNCTION      0.00  1458.41     0  02:36           0        2.17       0.271
  YSB1174              JUNCTION    582.80   582.80     0  02:36       0.838       0.838       0.146
  YSB6556              JUNCTION      0.00   697.57     0  02:37           0         1.1       0.096
  CC-1                 OUTFALL       0.00   683.00     0  00:00           0        5.95       0.000
  CC-2                 OUTFALL       0.00   683.00     0  00:00           0        5.95       0.000
  JK-1                 OUTFALL       0.00  1000.00     0  00:00           0        2.42       0.000
  JK-2                 OUTFALL       0.00  1000.00     0  00:00           0        2.42       0.000
  WSC                  OUTFALL       0.00  1584.35     0  02:39           0        15.4       0.000
  CC-storage           STORAGE       0.00  3419.55     0  01:36           0        15.4      -0.329
  JK-storage           STORAGE       0.00  1335.56     0  01:26           0        4.97     -11.007
  XR-storage           STORAGE     200.00   200.00     0  00:00        5.76        6.36       0.001
  
  
  **********************
  Node Surcharge Summary
  **********************
  
  Surcharging occurs when water rises above the top of the highest conduit.
  ---------------------------------------------------------------------
                                               Max. Height   Min. Depth
                                   Hours       Above Crown    Below Rim
  Node                 Type      Surcharged         Meters       Meters
  ---------------------------------------------------------------------
  HS02004478           JUNCTION        0.75          0.694        0.246
  HS02004479           JUNCTION        0.91          0.897        0.153
  HS02004480           JUNCTION        0.96          0.989        0.111
  HS02004770           JUNCTION        0.84          0.720        0.000
  HS02004777           JUNCTION        0.85          0.780        0.000
  HS02004785           JUNCTION        0.78          0.790        0.000
  HS02004788           JUNCTION        0.77          0.720        0.000
  HS02004792           JUNCTION        0.92          0.900        0.000
  HS02004799           JUNCTION        1.09          1.060        0.000
  HS02004802           JUNCTION        0.97          1.091        0.119
  HS02004807           JUNCTION        0.94          1.220        0.000
  HS02004817           JUNCTION        1.60          1.713        0.027
  HS02004824           JUNCTION        0.78          1.310        0.000
  HS02004830           JUNCTION        0.75          1.306        0.024
  HS02004837           JUNCTION        0.68          1.239        0.101
  HS02004842           JUNCTION        0.86          1.520        0.000
  HS02004848           JUNCTION        0.67          1.244        0.126
  HS02004852           JUNCTION        0.69          1.295        0.125
  HS02004856           JUNCTION        0.69          1.277        0.023
  HS02004862           JUNCTION        0.72          1.300        0.000
  HS02004870           JUNCTION        0.74          1.362        0.038
  HS02004876           JUNCTION        0.82          1.487        0.073
  HS02004881           JUNCTION        0.80          1.243        0.207
  HS02004901           JUNCTION        0.85          0.720        0.000
  WS02004401           JUNCTION        1.91          1.096        0.564
  WS02004402           JUNCTION        1.93          1.018        0.722
  WS02004403           JUNCTION        1.93          0.927        1.103
  WS02004404           JUNCTION        1.98          0.932        1.848
  WS02004405           JUNCTION        1.97          0.872        1.928
  WS02004406           JUNCTION        1.96          0.747        1.703
  WS02004407           JUNCTION        0.09          0.071        2.269
  WS02004409           JUNCTION        1.43          0.501        1.859
  WS02004410           JUNCTION        1.31          0.376        2.164
  WS02004411           JUNCTION        1.22          0.272        2.258
  WS02004412           JUNCTION        1.12          0.148        2.162
  WS02004413           JUNCTION        1.69          0.170        2.030
  WS02006109           JUNCTION        2.22          1.820        0.000
  WS02006110           JUNCTION        2.02          1.561        0.289
  WS02006111           JUNCTION        1.65          1.159        0.711
  WS02006112           JUNCTION        2.07          1.657        0.023
  WS02006113           JUNCTION        1.68          1.179        0.751
  WS02006115           JUNCTION        1.86          1.210        1.040
  WS02006116           JUNCTION        1.88          1.140        1.150
  WS02006228           JUNCTION        2.20          2.200        0.000
  WS02006229           JUNCTION        1.26          1.057        0.013
  WS02006230           JUNCTION        1.96          1.570        0.000
  WS02006231           JUNCTION        1.96          1.530        0.000
  WS02006232           JUNCTION        2.20          1.480        0.000
  WS02006234           JUNCTION        1.97          1.240        0.000
  WS02006235           JUNCTION        2.06          1.290        0.000
  WS02006238           JUNCTION        2.11          1.430        0.000
  WS02006239           JUNCTION        2.05          1.290        0.000
  WS02006240           JUNCTION        2.06          1.283        0.107
  WS02006242           JUNCTION        2.17          0.820        0.000
  WS02006243           JUNCTION        2.06          0.770        0.000
  WS02006245           JUNCTION        2.06          0.728        0.122
  WS02006247           JUNCTION        2.09          0.760        0.000
  WS02006248           JUNCTION        2.04          0.380        0.000
  WS02006249           JUNCTION        2.07          0.390        0.000
  WS02006251           JUNCTION        1.91          1.149        0.031
  WS02006252           JUNCTION        2.42          1.100        0.000
  WS02006253           JUNCTION        1.91          2.168        0.312
  WS02006256           JUNCTION        6.73          2.050        0.000
  WS02006280           JUNCTION        1.10          0.761        0.019
  WS02006284           JUNCTION        1.00          0.739        0.061
  WS02006287           JUNCTION        0.87          0.890        0.000
  YS02001580           JUNCTION        0.82          0.450        0.000
  YS02001583           JUNCTION        0.83          0.500        0.000
  YS02001586           JUNCTION        0.94          0.510        0.000
  YS02001590           JUNCTION        1.02          0.750        0.000
  YS02001593           JUNCTION        1.02          0.840        0.000
  YS02001596           JUNCTION        1.14          1.055        0.015
  YS02001600           JUNCTION        1.34          1.190        0.000
  YS02001601           JUNCTION        1.75          1.440        0.000
  YS02001602           JUNCTION        1.68          1.270        0.000
  YS02001605           JUNCTION        1.61          1.180        0.000
  YS02001607           JUNCTION        0.93          0.680        0.000
  YS02001610           JUNCTION        0.97          0.680        0.000
  YS02001613           JUNCTION        0.92          0.700        0.000
  YS02001616           JUNCTION        0.86          0.610        0.000
  YS02001619           JUNCTION        0.85          0.610        0.000
  YS02001622           JUNCTION        0.83          0.620        0.000
  YS02001625           JUNCTION        1.08          0.780        0.000
  YS02001629           JUNCTION        0.71          0.470        0.000
  YS02001633           JUNCTION        1.08          1.060        0.000
  YS02001641           JUNCTION        0.94          0.981        0.119
  YS02001644           JUNCTION        0.87          0.920        0.000
  YS02001647           JUNCTION        0.57          0.893        0.007
  YS02001649           JUNCTION        0.67          1.050        0.000
  YS02001652           JUNCTION        0.44          1.130        0.000
  YS02001655           JUNCTION        0.32          1.200        0.000
  YS02001658           JUNCTION        0.22          1.300        0.000
  YS02001661           JUNCTION        0.06          1.386        0.004
  YS02001664           JUNCTION        0.01          1.032        0.278
  YS02001745           JUNCTION        0.01          1.350        0.000
  YS02001748           JUNCTION        0.13          1.190        0.000
  YS02001751           JUNCTION        0.24          1.200        0.000
  YS02001754           JUNCTION        0.32          1.150        0.000
  YS02001757           JUNCTION        0.67          1.210        0.000
  YS02001759           JUNCTION        0.55          1.199        0.011
  YS02001762           JUNCTION        0.49          1.150        0.000
  YS02001765           JUNCTION        0.46          1.100        0.000
  YS02001767           JUNCTION        0.44          1.030        0.000
  YS02001770           JUNCTION        0.43          0.920        0.000
  YS02001774           JUNCTION        0.49          1.050        0.000
  YS02001779           JUNCTION        0.35          0.680        0.000
  YS02001783           JUNCTION        0.69          0.643        0.957
  YS02001784           JUNCTION        0.67          0.594        0.896
  YS02001786           JUNCTION        0.55          0.775        0.655
  YS02001882           JUNCTION        0.63          0.830        0.000
  YS02001884           JUNCTION        0.64          0.870        0.000
  YS02001887           JUNCTION        0.68          0.912        0.038
  YS02001890           JUNCTION        0.70          0.760        0.000
  YS02001895           JUNCTION        0.62          0.750        0.000
  YS02001898           JUNCTION        0.61          0.740        0.000
  YS02001901           JUNCTION        0.67          0.767        0.103
  YS02001904           JUNCTION        0.66          0.671        0.179
  YS02001907           JUNCTION        0.90          0.950        0.000
  YS02001910           JUNCTION        0.72          1.076        0.024
  YS02001915           JUNCTION        0.63          1.000        0.000
  YS02001918           JUNCTION        0.54          0.810        0.000
  YS02001920           JUNCTION        0.55          1.140        0.000
  YS02001923           JUNCTION        0.17          0.820        0.000
  YS02001926           JUNCTION        0.20          0.900        0.000
  YS02001929           JUNCTION        0.01          0.780        0.000
  YS02006553           JUNCTION        0.94          1.036        0.154
  YS02006556           JUNCTION        0.81          1.040        0.310
  YS02006558           JUNCTION        0.80          1.128        0.272
  YS02006561           JUNCTION        0.50          0.347        0.803
  YS02163301           JUNCTION        1.06          0.956        0.074
  YS02163601           JUNCTION        1.11          1.080        0.000
  YS02164001           JUNCTION        0.96          1.003        0.097
  YSB1154              JUNCTION        1.24          1.400        0.000
  YSB1171              JUNCTION        1.24          1.100        0.000
  YSB1174              JUNCTION        1.15          1.250        0.000
  YSB6556              JUNCTION        1.05          1.100        0.000
  
  
  *********************
  Node Flooding Summary
  *********************
  
  Flooding refers to all water that overflows a node, whether it ponds or not.
  --------------------------------------------------------------------------
                                                             Total   Maximum
                                 Maximum   Time of Max       Flood    Ponded
                        Hours       Rate    Occurrence      Volume     Depth
  Node                 Flooded       LPS   days hr:min    10^6 ltr    Meters
  --------------------------------------------------------------------------
  HS02004770              0.62   2546.85      0  02:37       1.831     0.000
  HS02004777              0.01     28.74      0  02:10       0.000     0.000
  HS02004785              0.01     33.09      0  02:10       0.000     0.000
  HS02004788              0.01     94.76      0  02:10       0.000     0.000
  HS02004792              0.62   3234.38      0  02:37       2.828     0.000
  HS02004799              0.36    437.02      0  02:37       0.261     0.000
  HS02004807              0.25    708.44      0  02:37       0.394     0.000
  HS02004824              0.19    481.76      0  02:37       0.185     0.000
  HS02004842              0.18    601.39      0  02:37       0.201     0.000
  HS02004862              0.17    623.32      0  02:37       0.181     0.000
  HS02004901              0.71    906.43      0  02:37       1.269     0.000
  WS02006109              0.65    424.97      0  02:37       0.503     0.000
  WS02006228              0.01      0.71      0  02:27       0.000     0.000
  WS02006230              1.01    572.93      0  02:29       1.493     0.000
  WS02006231              0.01     35.26      0  01:28       0.000     0.000
  WS02006232              0.27      5.88      0  02:53       0.000     0.000
  WS02006234              1.16     79.74      0  02:07       0.212     0.000
  WS02006235              0.05     42.59      0  01:30       0.003     0.000
  WS02006238              0.01     17.20      0  01:30       0.000     0.000
  WS02006239              0.01      9.77      0  01:30       0.000     0.000
  WS02006242              1.42    129.43      0  02:10       0.514     0.000
  WS02006243              0.01    140.29      0  01:28       0.000     0.000
  WS02006247              0.01     65.87      0  01:28       0.000     0.000
  WS02006248              1.69    339.59      0  03:04       1.618     0.000
  WS02006249              1.91   1330.02      0  02:36       5.856     0.000
  WS02006252              0.74    765.76      0  02:36       1.077     0.000
  WS02006256              0.69    310.18      0  01:23       0.531     0.000
  WS02006287              0.01      1.38      0  02:20       0.000     0.000
  YS02001580              0.01    303.04      0  01:24       0.002     0.000
  YS02001583              0.01    218.19      0  01:24       0.001     0.000
  YS02001586              0.66    463.80      0  01:32       0.571     0.000
  YS02001590              0.01    199.18      0  01:23       0.001     0.000
  YS02001593              0.01     67.47      0  01:23       0.000     0.000
  YS02001600              0.01     14.43      0  01:23       0.000     0.000
  YS02001601              0.84   1379.11      0  01:30       1.872     0.000
  YS02001602              0.61     61.94      0  01:53       0.126     0.000
  YS02001605              0.01     10.26      0  01:24       0.000     0.000
  YS02001607              0.01    485.91      0  01:24       0.004     0.000
  YS02001610              0.55    769.43      0  01:31       0.961     0.000
  YS02001613              0.01    294.11      0  01:24       0.001     0.000
  YS02001616              0.01    506.26      0  01:24       0.005     0.000
  YS02001619              0.01    293.56      0  01:24       0.001     0.000
  YS02001622              0.01    356.62      0  01:24       0.001     0.000
  YS02001625              0.46   1374.15      0  01:33       1.280     0.000
  YS02001629              0.14    324.25      0  01:27       0.081     0.000
  YS02001633              0.01      0.21      0  01:26       0.000     0.000
  YS02001644              0.21   1279.42      0  01:27       0.512     0.000
  YS02001649              0.02    389.61      0  01:26       0.011     0.000
  YS02001652              0.01    321.12      0  01:25       0.001     0.000
  YS02001655              0.01    384.96      0  01:25       0.001     0.000
  YS02001658              0.01    406.36      0  01:25       0.001     0.000
  YS02001745              0.01    370.63      0  01:26       0.001     0.000
  YS02001748              0.01    584.07      0  01:26       0.003     0.000
  YS02001751              0.01    409.88      0  01:26       0.001     0.000
  YS02001754              0.01    419.57      0  01:25       0.001     0.000
  YS02001757              0.01    146.23      0  01:26       0.001     0.000
  YS02001762              0.01    243.47      0  01:25       0.001     0.000
  YS02001765              0.01     15.14      0  01:26       0.000     0.000
  YS02001767              0.01    408.04      0  01:25       0.002     0.000
  YS02001770              0.02    240.79      0  01:25       0.004     0.000
  YS02001774              0.01    232.55      0  01:25       0.000     0.000
  YS02001779              0.18    817.80      0  01:25       0.305     0.000
  YS02001882              0.01     44.02      0  01:24       0.000     0.000
  YS02001884              0.01     88.35      0  01:24       0.000     0.000
  YS02001890              0.20    458.55      0  01:27       0.189     0.000
  YS02001895              0.01    204.45      0  01:24       0.000     0.000
  YS02001898              0.01    585.52      0  01:24       0.003     0.000
  YS02001907              0.47   2162.03      0  01:28       1.813     0.000
  YS02001915              0.01    414.03      0  01:24       0.001     0.000
  YS02001918              0.01    300.59      0  01:25       0.006     0.000
  YS02001920              0.01    467.82      0  01:25       0.001     0.000
  YS02001923              0.01    997.34      0  01:25       0.003     0.000
  YS02001926              0.01    807.76      0  01:25       0.003     0.000
  YS02001929              0.01   1058.16      0  01:25       0.009     0.000
  YS02163601              0.01      4.25      0  01:25       0.000     0.000
  YSB1154                 0.01      0.13      0  02:20       0.000     0.000
  YSB1171                 0.48   1458.35      0  02:36       1.282     0.000
  YSB1174                 0.01      0.27      0  02:20       0.000     0.000
  YSB6556                 0.05     57.44      0  02:37       0.006     0.000
  
  
  **********************
  Storage Volume Summary
  **********************
  
  --------------------------------------------------------------------------------------------------
                         Average     Avg  Evap Exfil       Maximum     Max    Time of Max    Maximum
                          Volume    Pcnt  Pcnt  Pcnt        Volume    Pcnt     Occurrence    Outflow
  Storage Unit           1000 m3    Full  Loss  Loss       1000 m3    Full    days hr:min        LPS
  --------------------------------------------------------------------------------------------------
  CC-storage               1.049      16     0     0         3.256      51       0  02:17    1783.53
  JK-storage               0.003       1     0     0         0.150      52       0  00:00    2300.00
  XR-storage               0.934      65     0     0         1.111      77       0  08:00     380.00
  
  
  ***********************
  Outfall Loading Summary
  ***********************
  
  -----------------------------------------------------------
                         Flow       Avg       Max       Total
                         Freq      Flow      Flow      Volume
  Outfall Node           Pcnt       LPS       LPS    10^6 ltr
  -----------------------------------------------------------
  CC-1                  49.31    683.00    683.00       5.955
  CC-2                  49.31    683.00    683.00       5.955
  JK-1                  14.95    993.33   1000.00       2.425
  JK-2                  14.95    993.33   1000.00       2.425
  WSC                   99.95    695.36   1584.35      15.447
  -----------------------------------------------------------
  System                45.69   4048.02   1584.35      32.206
  
  
  ********************
  Link Flow Summary
  ********************
  
  -----------------------------------------------------------------------------
                                 Maximum  Time of Max   Maximum    Max/    Max/
                                  |Flow|   Occurrence   |Veloc|    Full    Full
  Link                 Type          LPS  days hr:min     m/sec    Flow   Depth
  -----------------------------------------------------------------------------
  1                    CONDUIT   1584.35     0  02:39      3.74    0.55    0.53
  HS02004478WS02006287 CONDUIT   2303.80     0  02:41      2.59    0.64    1.00
  HS02004479HS02004480 CONDUIT    384.17     0  02:20      0.55    0.37    1.00
  HS02004480HS02004478 CONDUIT   1991.68     0  02:14      2.85    8.39    1.00
  HS02004770HS02004777 CONDUIT    671.17     0  02:12      0.96    1.23    1.00
  HS02004777HS02004785 CONDUIT    671.11     0  02:12      1.01    0.83    1.00
  HS02004785HS02004788 CONDUIT    671.97     0  02:11      1.35    5.07    1.00
  HS02004788HS02004792 CONDUIT    956.92     0  02:36      1.46    0.63    1.00
  HS02004792HS02004799 CONDUIT   1564.93     0  02:13      2.24    0.96    1.00
  HS02004799HS02004480 CONDUIT   1699.34     0  02:14      2.43    2.15    1.00
  HS02004802HS02004478 CONDUIT   1233.56     0  02:41      1.76    1.09    1.00
  HS02004807HS02004802 CONDUIT   1233.36     0  02:32      1.76    2.35    1.00
  HS02004817HS02004807 CONDUIT   1197.03     0  02:36      1.71    0.71    1.00
  HS02004817HS02004824 CONDUIT   1196.45     0  02:40      1.71    0.54    1.00
  HS02004824HS02004830 CONDUIT    609.64     0  02:36      0.87    0.80    1.00
  HS02004830HS02004837 CONDUIT    609.11     0  02:36      0.87    0.61    1.00
  HS02004837HS02004842 CONDUIT    671.35     0  02:14      0.96    0.40    1.00
  HS02004842HS02004848 CONDUIT    670.99     0  02:14      1.02    0.39    1.00
  HS02004848HS02004852 CONDUIT    850.02     0  02:14      1.46    0.96    1.00
  HS02004852HS02004856 CONDUIT    825.05     0  02:13      1.37    0.94    1.00
  HS02004856HS02004862 CONDUIT    868.63     0  02:13      1.55    0.87    1.00
  HS02004862HS02004870 CONDUIT   1073.76     0  02:42      1.62    1.16    1.00
  HS02004870HS02004876 CONDUIT   1271.27     0  02:41      1.82    0.84    1.00
  HS02004876HS02004881 CONDUIT   1521.80     0  02:41      2.19   16.19    1.00
  HS02004881HS02006253 CONDUIT   1700.17     0  02:36      2.43    0.33    1.00
  HS02004901HS02004770 CONDUIT    265.79     0  02:50      0.38    1.00    1.00
  WS02001211WS02001212 CONDUIT    222.28     0  03:12      0.54    0.17    0.71
  WS02001212WS02001213 CONDUIT    230.71     0  03:11      1.04    0.36    0.58
  WS02001213WS02003059 CONDUIT    240.03     0  03:11      0.47    0.40    0.92
  WS02003059WS02003060 CONDUIT    250.12     0  03:11      0.65    0.16    0.83
  WS02003060WS02003069 CONDUIT   1582.51     0  02:37      2.11    0.62    0.63
  WS02003066WSF200     CONDUIT   1389.32     0  02:36      3.28    0.23    0.40
  WS02003067WS02003066 CONDUIT   1388.77     0  02:36      2.08    0.45    0.57
  WS02003069WS02003072 CONDUIT   1582.09     0  02:38      1.93    0.76    0.68
  WS02003072WS02003073 CONDUIT   1582.37     0  02:38      2.09    3.42    0.63
  WS02004138WS02004139 CONDUIT    190.00     0  00:32      2.16    0.04    0.43
  WS02004139WS02001211 CONDUIT    202.88     0  03:12      0.54    0.26    0.62
  WS02004401WS02004402 CONDUIT   1385.31     0  02:36      1.76    1.66    1.00
  WS02004402WS02004403 CONDUIT   1386.00     0  02:36      1.76    1.99    1.00
  WS02004403WS02004404 CONDUIT   1385.67     0  02:36      1.76    1.00    1.00
  WS02004404WS02004405 CONDUIT   1386.06     0  02:36      1.76   13.58    1.00
  WS02004405WS02004406 CONDUIT   1385.83     0  02:37      1.76    2.73    1.00
  WS02004406WS02004407 CONDUIT   1385.44     0  02:37      1.76    0.62    1.00
  WS02004407WS02004409 CONDUIT   1385.97     0  02:37      1.90    0.49    1.00
  WS02004409WS02004410 CONDUIT   1385.98     0  02:37      1.76    1.79    1.00
  WS02004410WS02004411 CONDUIT   1386.52     0  02:37      1.77    1.89    1.00
  WS02004411WS02004412 CONDUIT   1386.32     0  02:37      1.77    1.97    1.00
  WS02004412WS02004413 CONDUIT   1386.44     0  02:37      1.77    0.93    1.00
  WS02004413WS02003067 CONDUIT   1386.65     0  02:37      2.12    0.59    0.78
  WS02006109WS02006110 CONDUIT   1130.00     0  02:53      2.25    2.17    1.00
  WS02006110WS02006113 CONDUIT   1129.79     0  02:53      2.25    1.03    1.00
  WS02006111WS02006112 CONDUIT   1130.23     0  02:53      2.25    0.54    1.00
  WS02006112WS02006115 CONDUIT   1385.86     0  02:36      1.76    0.82    1.00
  WS02006113WS02006111 CONDUIT   1130.15     0  02:53      2.75    1.35    1.00
  WS02006115WS02006116 CONDUIT   1385.56     0  02:36      1.76    1.78    1.00
  WS02006116WS02004401 CONDUIT   1385.68     0  02:37      1.76    1.91    1.00
  WS02006228WS02006109 CONDUIT   1287.45     0  02:31      2.56    5.63    1.00
  WS02006229WS02006228 CONDUIT   1287.64     0  02:37      2.56    4.26    1.00
  WS02006230WS02006229 CONDUIT   1015.35     0  02:29      2.64   22.60    1.00
  WS02006231WS02006230 CONDUIT    467.12     0  02:53      1.38    7.09    1.00
  WS02006232WS02006231 CONDUIT    465.03     0  02:53      1.21    0.97    1.00
  WS02006234WS02006232 CONDUIT    459.32     0  02:53      1.39    0.93    1.00
  WS02006235WS02006234 CONDUIT    442.77     0  02:53      1.21    4.67    1.00
  WS02006238WS02006235 CONDUIT    414.23     0  02:53      1.45    0.92    1.00
  WS02006239WS02006238 CONDUIT    406.26     0  02:10      1.10    1.30    1.00
  WS02006240WS02006239 CONDUIT    406.43     0  02:10      1.25    1.28    1.00
  WS02006242WS02006240 CONDUIT    406.99     0  02:10      1.15    1.62    1.00
  WS02006243WS02006242 CONDUIT    413.40     0  01:28      1.36    0.88    1.00
  WS02006245WS02006243 CONDUIT    453.18     0  01:27      1.45    1.34    1.00
  WS02006247WS02006245 CONDUIT    479.43     0  01:27      1.47    3.80    1.00
  WS02006248WS02006247 CONDUIT    480.54     0  01:27      1.43    1.05    1.00
  WS02006249WS02006248 CONDUIT    496.56     0  01:26      1.43    2.72    1.00
  WS02006251WS02006249 CONDUIT   1390.88     0  02:36      3.61    4.01    1.00
  WS02006252WS02006251 CONDUIT    413.59     0  01:29      4.83    1.52    1.00
  WS02006253WS02006251 CONDUIT   1756.36     0  02:36      4.56    5.27    1.00
  WS02006256WS02006235 CONDUIT    288.93     0  00:00      4.23    3.06    1.00
  WS02006280WS02006229 CONDUIT   2304.73     0  02:29      3.93    0.49    1.00
  WS02006284WS02006280 CONDUIT   2302.49     0  02:29      3.01    0.96    1.00
  WS02006287WS02006284 CONDUIT   2302.23     0  02:37      2.93    1.07    1.00
  WSF200WS02003060     CONDUIT   1389.63     0  02:37      2.33    0.31    0.52
  YS02001580YS02001583 CONDUIT    317.97     0  01:24      1.25    1.23    1.00
  YS02001583YS02001586 CONDUIT    316.92     0  01:24      1.38    0.48    1.00
  YS02001586YS02001590 CONDUIT    318.11     0  01:42      1.36    0.56    1.00
  YS02001590YS02001593 CONDUIT    317.99     0  01:42      1.12    2.00    1.00
  YS02001593YS02001596 CONDUIT    317.84     0  01:46      1.75    0.50    1.00
  YS02001596YS02001600 CONDUIT    317.87     0  01:32      1.21    0.62    1.00
  YS02001600YS02001601 CONDUIT    317.90     0  01:47      1.12    0.55    1.00
  YS02001601YS02001602 CONDUIT    603.70     0  01:24      2.14    2.18    1.00
  YS02001602YS02001605 CONDUIT    603.72     0  01:24      2.14   12.78    1.00
  YS02001605YS02001607 CONDUIT    603.48     0  01:24      2.13    3.31    1.00
  YS02001607YS02001610 CONDUIT    577.82     0  01:24      0.82    0.55    1.00
  YS02001610YS02001613 CONDUIT    534.82     0  01:24      0.77    0.62    1.00
  YS02001613YS02001616 CONDUIT    510.59     0  02:13      0.74    0.44    1.00
  YS02001616YS02001619 CONDUIT    510.38     0  02:13      0.67    0.89    1.00
  YS02001619YS02001622 CONDUIT    991.18     0  01:24      1.58    1.46    1.00
  YS02001622YS02001625 CONDUIT    950.36     0  01:57      1.21    0.51    1.00
  YS02001625YS02001629 CONDUIT    950.49     0  01:57      1.21    0.45    1.00
  YS02001629YS02163301 CONDUIT    952.89     0  01:57      1.21    1.17    1.00
  YS02001633YS02163601 CONDUIT   1275.53     0  01:57      1.62    1.34    1.00
  YS02001641YS02001644 CONDUIT   1276.17     0  01:57      1.62    4.13    1.00
  YS02001644YS02001647 CONDUIT   1921.59     0  01:25      2.45    1.13    1.00
  YS02001647YS02001649 CONDUIT   1926.01     0  01:25      2.45    1.02    1.00
  YS02001649YS02001757 CONDUIT   2140.70     0  01:25      2.73    1.30    1.00
  YS02001652YS02001649 CONDUIT   1064.07     0  01:27      1.35    0.53    1.00
  YS02001655YS02001652 CONDUIT   1063.61     0  01:27      1.88    0.52    1.00
  YS02001658YS02001655 CONDUIT   1063.05     0  01:27      2.26    0.45    1.00
  YS02001661YS02001658 CONDUIT   1062.88     0  01:27      2.66    0.42    1.00
  YS02001664YS02001661 CONDUIT   1061.28     0  01:27      2.70    0.33    1.00
  YS02001745YS02001748 CONDUIT    676.33     0  01:26      2.63    0.26    1.00
  YS02001748YS02001751 CONDUIT    677.36     0  01:26      2.11    0.34    1.00
  YS02001751YS02001754 CONDUIT    677.32     0  01:26      1.88    0.33    1.00
  YS02001754YS02001757 CONDUIT    678.15     0  01:26      0.86    0.27    1.00
  YS02001757CaochengTiaoxuchi CONDUIT   3419.55     0  01:36      7.19    1.48    1.00
  YS02001759YS02001757 CONDUIT   1436.73     0  01:26      1.83    1.02    1.00
  YS02001762YS02001759 CONDUIT    825.28     0  01:36      1.05    0.95    1.00
  YS02001765YS02001762 CONDUIT    824.98     0  01:36      1.05    0.77    1.00
  YS02001767YS02001765 CONDUIT    824.95     0  01:36      1.05    1.04    1.00
  YS02001770YS02001767 CONDUIT    824.26     0  01:36      1.11    3.26    1.00
  YS02001774YS02001770 CONDUIT    837.80     0  01:25      1.07    0.54    1.00
  YS02001779YS02001774 CONDUIT    837.22     0  01:25      1.07    0.42    1.00
  YS02001783YS02001784 CONDUIT   1173.95     0  01:25      2.34    1.62    1.00
  YS02001784YS02001785 CONDUIT   1175.86     0  01:25      2.34    2.74    1.00
  YS02001786YS02001788 CONDUIT   1173.48     0  01:26      2.55    2.26    0.91
  YS02001788YS02001790 CONDUIT   1220.58     0  01:25      2.78    0.90    0.84
  YS02001790YS02001791 CONDUIT   1291.29     0  01:26      3.42    1.40    0.70
  YS02001791YS02001793 CONDUIT   1259.90     0  01:26      6.46    0.54    0.43
  YS02001793JiankangQianchi CONDUIT   1335.56     0  01:26     24.44    0.11    0.50
  YS02001882YS02001884 CONDUIT    193.16     0  01:24      0.25    0.22    1.00
  YS02001884YS02001887 CONDUIT    290.06     0  01:24      0.37    0.39    1.00
  YS02001887YS02001890 CONDUIT    977.41     0  01:27      1.24    1.67    1.00
  YS02001890YS02001895 CONDUIT    776.65     0  01:24      0.99    0.36    1.00
  YS02001895YS02001898 CONDUIT    682.69     0  01:24      0.87    1.18    1.00
  YS02001898YS02001901 CONDUIT    524.31     0  01:25      0.67    0.34    1.00
  YS02001901YS02001904 CONDUIT    524.78     0  01:25      0.67    0.81    1.00
  YS02001904YS02001907 CONDUIT    526.67     0  01:25      0.67    0.18    1.00
  YS02001907YS02006553 CONDUIT    790.14     0  01:55      0.88    0.93    1.00
  YS02001910YS02001907 CONDUIT   1562.32     0  01:30      1.99    0.88    1.00
  YS02001915YS02001910 CONDUIT   1562.37     0  01:30      1.99    0.78    1.00
  YS02001918YS02001915 CONDUIT   1129.02     0  01:25      1.44    0.62    1.00
  YS02001920YS02001918 CONDUIT   1056.33     0  01:25      1.35    1.02    1.00
  YS02001923YS02001920 CONDUIT   1092.80     0  01:25      1.48    0.49    1.00
  YS02001926YS02001923 CONDUIT   1198.65     0  01:25      1.69    1.71    1.00
  YS02001929YS02001926 CONDUIT    776.97     0  01:25      1.38    0.37    1.00
  YS02006553YS02006556 CONDUIT    790.29     0  01:55      1.01    0.68    1.00
  YS02006556YS02006558 CONDUIT    790.56     0  01:55      1.01    0.62    1.00
  YS02006558YS02006561 CONDUIT   1252.14     0  01:24      4.43    2.77    1.00
  YS02006561YS02001783 CONDUIT   1172.56     0  01:26      2.33    0.61    1.00
  YS02163301YS02001633 CONDUIT    952.88     0  01:57      1.21    0.90    1.00
  YS02163601YS02164001 CONDUIT   1275.67     0  01:57      1.62    1.13    1.00
  YS02164001YS02001641 CONDUIT   1276.78     0  01:57      1.63    1.74    1.00
  YSB1154YSB6556       CONDUIT    697.57     0  02:37      1.81    1.25    1.00
  YSB1171HS02004479    CONDUIT    383.87     0  02:20      0.76    0.26    1.00
  YSB1174YSB1171       CONDUIT    582.96     0  02:36      1.51    0.89    1.00
  YSB6556YSB1171       CONDUIT    639.83     0  02:38      1.66    0.66    1.00
  CC-R1                PUMP       683.00     0  00:00              1.00
  CC-R2                PUMP       683.00     0  00:00              1.00
  CC-S1                PUMP       200.00     0  00:00              1.00
  CC-S2                PUMP       200.00     0  00:00              1.00
  JK-R1                PUMP      1000.00     0  00:00              1.00
  JK-R2                PUMP      1000.00     0  00:00              1.00
  JK-S                 PUMP       300.00     0  00:00              1.00
  XR-1                 PUMP        95.00     0  00:00              1.00
  XR-2                 PUMP        95.00     0  00:00              1.00
  XR-3                 PUMP        95.00     0  00:00              1.00
  XR-4                 PUMP        95.00     0  00:00              1.00
  
  
  ***************************
  Flow Classification Summary
  ***************************
  
  -------------------------------------------------------------------------------------
                      Adjusted    ---------- Fraction of Time in Flow Class ---------- 
                       /Actual         Up    Down  Sub   Sup   Up    Down  Norm  Inlet 
  Conduit               Length    Dry  Dry   Dry   Crit  Crit  Crit  Crit  Ltd   Ctrl  
  -------------------------------------------------------------------------------------
  1                       1.00   0.00  0.00  0.00  0.00  1.00  0.00  0.00  0.38  0.00
  HS02004478WS02006287    1.00   0.14  0.00  0.00  0.56  0.30  0.00  0.00  0.56  0.00
  HS02004479HS02004480    1.00   0.06  0.00  0.00  0.94  0.00  0.00  0.00  0.11  0.00
  HS02004480HS02004478    1.00   0.13  0.00  0.00  0.51  0.00  0.00  0.36  0.00  0.00
  HS02004770HS02004777    1.00   0.00  0.13  0.00  0.87  0.00  0.00  0.00  0.02  0.00
  HS02004777HS02004785    1.00   0.00  0.00  0.00  1.00  0.00  0.00  0.00  0.11  0.00
  HS02004785HS02004788    1.00   0.00  0.00  0.00  1.00  0.00  0.00  0.00  0.00  0.00
  HS02004788HS02004792    1.00   0.00  0.00  0.00  0.99  0.01  0.00  0.00  0.86  0.00
  HS02004792HS02004799    1.00   0.00  0.00  0.00  0.99  0.01  0.00  0.00  0.82  0.00
  HS02004799HS02004480    1.00   0.00  0.05  0.00  0.86  0.00  0.09  0.00  0.00  0.00
  HS02004802HS02004478    1.00   0.13  0.00  0.00  0.87  0.00  0.00  0.00  0.02  0.00
  HS02004807HS02004802    1.00   0.13  0.00  0.00  0.86  0.00  0.00  0.01  0.00  0.00
  HS02004817HS02004807    1.00   0.00  0.13  0.00  0.87  0.00  0.00  0.00  0.01  0.00
  HS02004817HS02004824    1.00   0.00  0.00  0.00  1.00  0.00  0.00  0.00  0.77  0.00
  HS02004824HS02004830    1.00   0.00  0.00  0.00  1.00  0.00  0.00  0.00  0.01  0.00
  HS02004830HS02004837    1.00   0.00  0.00  0.00  1.00  0.00  0.00  0.00  0.83  0.00
  HS02004837HS02004842    1.00   0.00  0.00  0.00  1.00  0.00  0.00  0.00  0.11  0.00
  HS02004842HS02004848    1.00   0.00  0.13  0.00  0.87  0.00  0.00  0.00  0.51  0.00
  HS02004848HS02004852    1.00   0.13  0.00  0.00  0.87  0.00  0.00  0.00  0.68  0.00
  HS02004852HS02004856    1.00   0.13  0.00  0.00  0.87  0.00  0.00  0.00  0.63  0.00
  HS02004856HS02004862    1.00   0.00  0.14  0.00  0.86  0.00  0.00  0.00  0.71  0.00
  HS02004862HS02004870    1.00   0.00  0.00  0.00  1.00  0.00  0.00  0.00  0.02  0.00
  HS02004870HS02004876    1.00   0.00  0.00  0.00  0.97  0.02  0.00  0.00  0.82  0.00
  HS02004876HS02004881    1.00   0.02  0.00  0.00  0.70  0.29  0.00  0.00  0.00  0.00
  HS02004881HS02006253    1.00   0.00  0.08  0.00  0.43  0.01  0.00  0.48  0.14  0.00
  HS02004901HS02004770    1.00   0.13  0.00  0.00  0.87  0.00  0.00  0.00  0.00  0.00
  WS02001211WS02001212    1.00   0.00  0.03  0.00  0.97  0.00  0.00  0.00  0.00  0.00
  WS02001212WS02001213    1.00   0.03  0.00  0.00  0.49  0.00  0.48  0.00  0.00  0.00
  WS02001213WS02003059    1.00   0.00  0.00  0.00  0.99  0.00  0.00  0.00  0.00  0.00
  WS02003059WS02003060    1.00   0.00  0.00  0.00  1.00  0.00  0.00  0.00  0.03  0.00
  WS02003060WS02003069    1.00   0.00  0.00  0.00  0.97  0.03  0.00  0.00  0.48  0.00
  WS02003066WSF200        1.00   0.08  0.00  0.00  0.00  0.92  0.00  0.00  0.67  0.00
  WS02003067WS02003066    1.00   0.07  0.01  0.00  0.92  0.00  0.00  0.00  0.00  0.00
  WS02003069WS02003072    1.00   0.00  0.00  0.00  1.00  0.00  0.00  0.00  0.61  0.00
  WS02003072WS02003073    1.00   0.00  0.00  0.00  0.00  0.00  0.00  1.00  0.00  0.00
  WS02004138WS02004139    1.00   0.00  0.01  0.00  0.97  0.01  0.00  0.01  0.98  0.00
  WS02004139WS02001211    1.00   0.00  0.00  0.00  0.99  0.00  0.00  0.00  0.00  0.00
  WS02004401WS02004402    1.00   0.03  0.00  0.00  0.97  0.00  0.00  0.00  0.00  0.00
  WS02004402WS02004403    1.00   0.03  0.00  0.00  0.97  0.00  0.00  0.00  0.00  0.00
  WS02004403WS02004404    1.00   0.00  0.03  0.00  0.97  0.00  0.00  0.00  0.00  0.00
  WS02004404WS02004405    1.00   0.00  0.00  0.00  1.00  0.00  0.00  0.00  0.00  0.00
  WS02004405WS02004406    1.00   0.00  0.00  0.00  1.00  0.00  0.00  0.00  0.00  0.00
  WS02004406WS02004407    1.00   0.00  0.05  0.00  0.95  0.00  0.00  0.00  0.00  0.00
  WS02004407WS02004409    1.00   0.05  0.00  0.00  0.93  0.01  0.00  0.00  0.78  0.00
  WS02004409WS02004410    1.00   0.05  0.00  0.00  0.94  0.00  0.00  0.00  0.00  0.00
  WS02004410WS02004411    1.00   0.06  0.00  0.00  0.94  0.00  0.00  0.00  0.00  0.00
  WS02004411WS02004412    1.00   0.06  0.00  0.00  0.94  0.00  0.00  0.00  0.00  0.00
  WS02004412WS02004413    1.00   0.06  0.00  0.00  0.94  0.00  0.00  0.00  0.00  0.00
  WS02004413WS02003067    1.00   0.06  0.01  0.00  0.00  0.00  0.93  0.00  0.00  0.00
  WS02006109WS02006110    1.00   0.00  0.01  0.00  0.98  0.00  0.01  0.00  0.00  0.00
  WS02006110WS02006113    1.00   0.01  0.01  0.00  0.98  0.00  0.00  0.00  0.00  0.00
  WS02006111WS02006112    1.00   0.02  0.00  0.00  0.97  0.00  0.00  0.00  0.73  0.00
  WS02006112WS02006115    1.00   0.02  0.00  0.00  0.97  0.00  0.01  0.00  0.00  0.00
  WS02006113WS02006111    1.00   0.02  0.00  0.00  0.39  0.59  0.00  0.00  0.08  0.00
  WS02006115WS02006116    1.00   0.02  0.00  0.00  0.96  0.00  0.00  0.01  0.00  0.00
  WS02006116WS02004401    1.00   0.02  0.00  0.00  0.97  0.00  0.00  0.00  0.00  0.00
  WS02006228WS02006109    1.00   0.00  0.00  0.00  1.00  0.00  0.00  0.00  0.00  0.00
  WS02006229WS02006228    1.00   0.00  0.00  0.00  0.99  0.00  0.00  0.01  0.00  0.00
  WS02006230WS02006229    1.00   0.00  0.00  0.00  0.99  0.00  0.00  0.01  0.03  0.00
  WS02006231WS02006230    1.00   0.00  0.00  0.00  0.57  0.00  0.43  0.00  0.00  0.00
  WS02006232WS02006231    1.00   0.00  0.00  0.00  0.99  0.00  0.00  0.00  0.00  0.00
  WS02006234WS02006232    1.00   0.00  0.00  0.00  1.00  0.00  0.00  0.00  0.04  0.00
  WS02006235WS02006234    1.00   0.00  0.00  0.00  0.88  0.00  0.12  0.00  0.00  0.00
  WS02006238WS02006235    1.00   0.00  0.00  0.00  1.00  0.00  0.00  0.00  0.00  0.00
  WS02006239WS02006238    1.00   0.00  0.00  0.00  1.00  0.00  0.00  0.00  0.17  0.00
  WS02006240WS02006239    1.00   0.00  0.00  0.00  0.77  0.00  0.00  0.22  0.03  0.00
  WS02006242WS02006240    1.00   0.00  0.00  0.00  0.99  0.00  0.01  0.00  0.00  0.00
  WS02006243WS02006242    1.00   0.00  0.00  0.00  0.99  0.00  0.00  0.00  0.61  0.00
  WS02006245WS02006243    1.00   0.00  0.00  0.00  0.91  0.00  0.00  0.08  0.00  0.00
  WS02006247WS02006245    1.00   0.00  0.00  0.00  0.98  0.00  0.00  0.01  0.00  0.00
  WS02006248WS02006247    1.00   0.00  0.00  0.00  0.99  0.00  0.00  0.00  0.60  0.00
  WS02006249WS02006248    1.00   0.00  0.00  0.00  0.60  0.00  0.40  0.00  0.00  0.00
  WS02006251WS02006249    1.00   0.00  0.00  0.00  1.00  0.00  0.00  0.00  0.60  0.00
  WS02006252WS02006251    1.00   0.00  0.27  0.00  0.40  0.00  0.32  0.00  0.00  0.00
  WS02006253WS02006251    1.00   0.00  0.00  0.00  0.99  0.00  0.01  0.00  0.00  0.00
  WS02006256WS02006235    1.00   0.00  0.00  0.00  0.99  0.01  0.00  0.00  0.01  0.00
  WS02006280WS02006229    1.00   0.14  0.00  0.00  0.33  0.06  0.00  0.47  0.01  0.00
  WS02006284WS02006280    1.00   0.14  0.00  0.00  0.23  0.02  0.00  0.61  0.00  0.00
  WS02006287WS02006284    1.00   0.12  0.02  0.00  0.48  0.38  0.00  0.00  0.61  0.00
  WSF200WS02003060        1.00   0.00  0.08  0.00  0.46  0.46  0.00  0.00  0.63  0.00
  YS02001580YS02001583    1.00   0.16  0.46  0.00  0.38  0.00  0.00  0.00  0.70  0.00
  YS02001583YS02001586    1.00   0.30  0.23  0.00  0.47  0.00  0.00  0.00  0.70  0.00
  YS02001586YS02001590    1.00   0.13  0.00  0.00  0.61  0.03  0.00  0.24  0.33  0.00
  YS02001590YS02001593    1.00   0.13  0.00  0.00  0.28  0.00  0.59  0.00  0.00  0.00
  YS02001593YS02001596    1.00   0.13  0.00  0.00  0.31  0.02  0.00  0.54  0.03  0.00
  YS02001596YS02001600    1.00   0.13  0.00  0.00  0.39  0.01  0.00  0.46  0.04  0.00
  YS02001600YS02001601    1.00   0.13  0.00  0.00  0.87  0.00  0.00  0.00  0.59  0.00
  YS02001601YS02001602    1.00   0.13  0.00  0.00  0.87  0.00  0.00  0.00  0.00  0.00
  YS02001602YS02001605    1.00   0.13  0.00  0.00  0.87  0.00  0.00  0.00  0.00  0.00
  YS02001605YS02001607    1.00   0.13  0.00  0.00  0.87  0.00  0.00  0.00  0.00  0.00
  YS02001607YS02001610    1.00   0.13  0.00  0.00  0.87  0.00  0.00  0.00  0.01  0.00
  YS02001610YS02001613    1.00   0.13  0.00  0.00  0.87  0.00  0.00  0.00  0.00  0.00
  YS02001613YS02001616    1.00   0.13  0.00  0.00  0.87  0.00  0.00  0.00  0.00  0.00
  YS02001616YS02001619    1.00   0.13  0.00  0.00  0.87  0.00  0.00  0.00  0.00  0.00
  YS02001619YS02001622    1.00   0.13  0.00  0.00  0.87  0.00  0.00  0.00  0.29  0.00
  YS02001622YS02001625    1.00   0.13  0.00  0.00  0.87  0.00  0.00  0.00  0.03  0.00
  YS02001625YS02001629    1.00   0.13  0.02  0.00  0.35  0.00  0.50  0.00  0.00  0.00
  YS02001629YS02163301    1.00   0.14  0.00  0.00  0.86  0.00  0.00  0.00  0.00  0.00
  YS02001633YS02163601    1.00   0.00  0.01  0.00  0.99  0.00  0.00  0.00  0.14  0.00
  YS02001641YS02001644    1.00   0.00  0.00  0.00  1.00  0.00  0.00  0.00  0.00  0.00
  YS02001644YS02001647    1.00   0.00  0.14  0.00  0.86  0.00  0.00  0.00  0.00  0.00
  YS02001647YS02001649    1.00   0.00  0.14  0.00  0.49  0.36  0.00  0.00  0.57  0.00
  YS02001649YS02001757    1.00   0.00  0.00  0.00  0.64  0.36  0.00  0.00  0.48  0.00
  YS02001652YS02001649    1.00   0.00  0.00  0.00  0.98  0.02  0.00  0.00  0.71  0.00
  YS02001655YS02001652    1.00   0.00  0.00  0.00  0.38  0.01  0.00  0.61  0.10  0.00
  YS02001658YS02001655    1.00   0.00  0.14  0.00  0.56  0.30  0.00  0.00  0.74  0.00
  YS02001661YS02001658    1.00   0.14  0.00  0.00  0.38  0.49  0.00  0.00  0.77  0.00
  YS02001664YS02001661    1.00   0.13  0.00  0.00  0.59  0.28  0.00  0.00  0.85  0.00
  YS02001745YS02001748    1.00   0.00  0.00  0.00  0.11  0.04  0.00  0.85  0.04  0.00
  YS02001748YS02001751    1.00   0.00  0.00  0.00  0.71  0.29  0.00  0.00  0.84  0.00
  YS02001751YS02001754    1.00   0.00  0.00  0.00  0.28  0.01  0.00  0.71  0.04  0.00
  YS02001754YS02001757    1.00   0.00  0.00  0.00  1.00  0.00  0.00  0.00  0.82  0.00
  YS02001757CaochengTiaoxuchi    1.00   0.00  0.00  0.00  0.47  0.53  0.00  0.00  0.43  0.00
  YS02001759YS02001757    1.00   0.00  0.00  0.00  1.00  0.00  0.00  0.00  0.64  0.00
  YS02001762YS02001759    1.00   0.00  0.00  0.00  1.00  0.00  0.00  0.00  0.03  0.00
  YS02001765YS02001762    1.00   0.00  0.00  0.00  1.00  0.00  0.00  0.00  0.71  0.00
  YS02001767YS02001765    1.00   0.00  0.00  0.00  1.00  0.00  0.00  0.00  0.00  0.00
  YS02001770YS02001767    1.00   0.00  0.00  0.00  1.00  0.00  0.00  0.00  0.00  0.00
  YS02001774YS02001770    1.00   0.00  0.13  0.00  0.77  0.00  0.10  0.00  0.02  0.00
  YS02001779YS02001774    1.00   0.00  0.00  0.00  1.00  0.00  0.00  0.00  0.77  0.00
  YS02001783YS02001784    1.00   0.00  0.15  0.00  0.85  0.00  0.00  0.00  0.55  0.00
  YS02001784YS02001785    1.00   0.00  0.00  0.00  1.00  0.00  0.00  0.00  0.15  0.00
  YS02001786YS02001788    1.00   0.00  0.00  0.00  0.68  0.32  0.00  0.00  0.00  0.00
  YS02001788YS02001790    1.00   0.00  0.00  0.00  0.21  0.79  0.00  0.00  0.78  0.00
  YS02001790YS02001791    1.00   0.00  0.00  0.00  0.01  0.99  0.00  0.00  0.16  0.00
  YS02001791YS02001793    1.00   0.00  0.00  0.00  0.00  1.00  0.00  0.00  0.01  0.00
  YS02001793JiankangQianchi    1.00   0.00  0.00  0.00  0.11  0.88  0.00  0.00  0.58  0.00
  YS02001882YS02001884    1.00   0.14  0.00  0.00  0.86  0.00  0.00  0.00  0.00  0.00
  YS02001884YS02001887    1.00   0.09  0.04  0.00  0.88  0.00  0.00  0.00  0.00  0.00
  YS02001887YS02001890    1.00   0.00  0.00  0.00  0.96  0.00  0.04  0.00  0.00  0.00
  YS02001890YS02001895    1.00   0.00  0.14  0.00  0.86  0.00  0.00  0.00  0.00  0.00
  YS02001895YS02001898    1.00   0.14  0.00  0.00  0.85  0.00  0.01  0.00  0.00  0.00
  YS02001898YS02001901    1.00   0.14  0.00  0.00  0.86  0.00  0.00  0.00  0.00  0.00
  YS02001901YS02001904    1.00   0.14  0.00  0.00  0.86  0.00  0.00  0.00  0.00  0.00
  YS02001904YS02001907    1.00   0.00  0.14  0.00  0.86  0.00  0.00  0.00  0.00  0.00
  YS02001907YS02006553    1.00   0.00  0.02  0.00  0.97  0.00  0.00  0.00  0.00  0.00
  YS02001910YS02001907    1.00   0.00  0.00  0.00  0.96  0.01  0.00  0.03  0.12  0.00
  YS02001915YS02001910    1.00   0.00  0.00  0.00  0.97  0.03  0.00  0.00  0.13  0.00
  YS02001918YS02001915    1.00   0.00  0.00  0.00  0.97  0.02  0.00  0.00  0.72  0.00
  YS02001920YS02001918    1.00   0.00  0.00  0.00  1.00  0.00  0.00  0.00  0.00  0.00
  YS02001923YS02001920    1.00   0.00  0.00  0.00  1.00  0.00  0.00  0.00  0.90  0.00
  YS02001926YS02001923    1.00   0.00  0.10  0.00  0.16  0.00  0.74  0.00  0.00  0.00
  YS02001929YS02001926    1.00   0.00  0.13  0.00  0.87  0.00  0.00  0.00  0.80  0.00
  YS02006553YS02006556    1.00   0.01  0.00  0.00  0.99  0.00  0.00  0.00  0.03  0.00
  YS02006556YS02006558    1.00   0.00  0.00  0.00  1.00  0.00  0.00  0.00  0.00  0.00
  YS02006558YS02006561    1.00   0.15  0.00  0.00  0.15  0.70  0.00  0.00  0.18  0.00
  YS02006561YS02001783    1.00   0.15  0.00  0.00  0.21  0.64  0.00  0.00  0.67  0.00
  YS02163301YS02001633    1.00   0.00  0.14  0.00  0.86  0.00  0.00  0.00  0.00  0.00
  YS02163601YS02164001    1.00   0.00  0.10  0.00  0.90  0.00  0.00  0.00  0.00  0.00
  YS02164001YS02001641    1.00   0.01  0.10  0.00  0.89  0.00  0.00  0.00  0.05  0.00
  YSB1154YSB6556          1.00   0.13  0.00  0.00  0.87  0.00  0.00  0.00  0.01  0.00
  YSB1171HS02004479       1.00   0.06  0.00  0.00  0.92  0.00  0.00  0.02  0.09  0.00
  YSB1174YSB1171          1.00   0.08  0.04  0.00  0.89  0.00  0.00  0.00  0.00  0.00
  YSB6556YSB1171          1.00   0.06  0.07  0.00  0.87  0.00  0.00  0.00  0.00  0.00
  
  
  *************************
  Conduit Surcharge Summary
  *************************
  
  ----------------------------------------------------------------------------
                                                           Hours        Hours 
                         --------- Hours Full --------   Above Full   Capacity
  Conduit                Both Ends  Upstream  Dnstream   Normal Flow   Limited
  ----------------------------------------------------------------------------
  HS02004478WS02006287        0.75      0.75      0.97      0.01         0.01
  HS02004479HS02004480        0.96      0.96      0.99      0.01         0.01
  HS02004480HS02004478        0.88      0.96      0.88      2.03         0.88
  HS02004770HS02004777        0.84      0.84      0.84      0.15         0.10
  HS02004777HS02004785        0.78      0.78      0.84      0.01         0.01
  HS02004785HS02004788        0.77      0.78      0.77      1.66         0.64
  HS02004788HS02004792        0.77      0.77      0.92      0.01         0.01
  HS02004792HS02004799        0.92      0.92      1.09      0.01         0.01
  HS02004799HS02004480        0.96      0.96      1.09      1.19         0.01
  HS02004802HS02004478        0.89      0.89      0.99      0.26         0.01
  HS02004807HS02004802        0.94      0.94      0.97      0.45         0.46
  HS02004817HS02004807        0.94      0.94      1.60      0.01         0.01
  HS02004817HS02004824        0.78      0.78      1.60      0.01         0.01
  HS02004824HS02004830        0.75      0.75      0.78      0.01         0.01
  HS02004830HS02004837        0.68      0.68      0.75      0.01         0.01
  HS02004837HS02004842        0.68      0.68      0.86      0.01         0.01
  HS02004842HS02004848        0.67      0.67      0.86      0.01         0.01
  HS02004848HS02004852        0.67      0.67      0.69      0.01         0.01
  HS02004852HS02004856        0.69      0.69      0.72      0.01         0.01
  HS02004856HS02004862        0.69      0.69      0.72      0.01         0.01
  HS02004862HS02004870        0.72      0.72      0.74      0.26         0.27
  HS02004870HS02004876        0.74      0.74      0.82      0.01         0.01
  HS02004876HS02004881        0.80      0.82      0.80      1.85         0.80
  HS02004881HS02006253        0.80      0.80      1.91      0.01         0.01
  HS02004901HS02004770        0.84      0.84      0.85      0.20         0.01
  WS02003072WS02003073        0.01      0.01      0.01      2.44         0.01
  WS02004401WS02004402        1.91      1.91      1.93      1.77         1.73
  WS02004402WS02004403        1.93      1.93      1.93      1.93         1.91
  WS02004403WS02004404        1.93      1.93      1.98      0.01         0.06
  WS02004404WS02004405        1.97      1.98      1.97      3.40         1.96
  WS02004405WS02004406        1.96      1.97      1.96      2.05         1.96
  WS02004406WS02004407        0.09      0.09      1.96      0.01         0.01
  WS02004407WS02004409        0.09      0.09      1.43      0.01         0.01
  WS02004409WS02004410        1.31      1.43      1.31      1.85         1.31
  WS02004410WS02004411        1.22      1.31      1.22      1.89         1.22
  WS02004411WS02004412        1.12      1.22      1.12      1.91         1.12
  WS02004412WS02004413        1.12      1.12      1.69      0.01         0.01
  WS02004413WS02003067        0.01      0.01      1.69      0.01         0.01
  WS02006109WS02006110        2.02      2.02      2.33      2.03         0.01
  WS02006110WS02006113        1.67      1.67      2.29      0.38         0.01
  WS02006111WS02006112        1.65      1.65      2.44      0.01         0.01
  WS02006112WS02006115        1.85      1.85      2.07      0.01         0.01
  WS02006113WS02006111        1.66      1.68      1.66      1.79         1.66
  WS02006115WS02006116        1.87      1.87      1.87      1.86         1.83
  WS02006116WS02004401        1.91      1.91      1.91      1.92         1.90
  WS02006228WS02006109        2.22      2.33      2.22      2.80         2.22
  WS02006229WS02006228        2.20      2.26      2.20      2.54         2.20
  WS02006230WS02006229        2.41      2.44      2.41      3.40         0.92
  WS02006231WS02006230        1.96      1.96      1.98      2.90         1.45
  WS02006232WS02006231        1.96      1.96      2.20      0.01         0.20
  WS02006234WS02006232        1.99      1.99      2.20      0.01         0.04
  WS02006235WS02006234        1.97      1.97      2.06      2.65         1.41
  WS02006238WS02006235        2.08      2.08      2.19      0.01         0.24
  WS02006239WS02006238        2.11      2.15      2.11      1.51         0.36
  WS02006240WS02006239        2.05      2.07      2.05      1.49         0.32
  WS02006242WS02006240        2.06      2.06      2.21      1.78         1.31
  WS02006243WS02006242        2.08      2.08      2.17      0.01         0.02
  WS02006245WS02006243        2.06      2.07      2.06      0.37         0.26
  WS02006247WS02006245        2.06      2.10      2.06      2.30         0.52
  WS02006248WS02006247        2.06      2.06      2.09      0.01         0.06
  WS02006249WS02006248        2.04      2.04      2.07      0.84         0.01
  WS02006251WS02006249        2.07      2.10      2.07      2.32         2.05
  WS02006252WS02006251        2.42      2.42      2.42      1.98         0.18
  WS02006253WS02006251        2.09      2.09      2.13      1.12         0.01
  WS02006256WS02006235        2.80      2.90      6.53      0.19         0.14
  WS02006280WS02006229        1.12      1.12      1.26      0.01         0.01
  WS02006284WS02006280        1.00      1.00      1.10      0.01         0.01
  WS02006287WS02006284        0.87      0.87      1.02      0.52         0.52
  YS02001580YS02001583        0.82      0.82      0.84      0.01         0.01
  YS02001583YS02001586        0.83      0.83      0.94      0.01         0.01
  YS02001586YS02001590        0.95      0.95      1.02      0.01         0.01
  YS02001590YS02001593        1.02      1.02      1.04      1.16         0.01
  YS02001593YS02001596        1.03      1.03      1.14      0.01         0.01
  YS02001596YS02001600        1.19      1.19      1.33      0.01         0.01
  YS02001600YS02001601        1.42      1.42      1.75      0.01         0.01
  YS02001601YS02001602        1.68      1.68      1.78      1.38         0.01
  YS02001602YS02001605        1.61      1.61      1.68      2.35         0.01
  YS02001605YS02001607        1.54      1.61      1.54      1.72         1.54
  YS02001607YS02001610        0.93      0.93      0.97      0.01         0.01
  YS02001610YS02001613        0.92      0.92      0.97      0.01         0.01
  YS02001613YS02001616        0.86      0.86      0.92      0.01         0.01
  YS02001616YS02001619        0.85      0.85      0.86      0.01         0.03
  YS02001619YS02001622        0.83      0.85      0.83      1.08         0.81
  YS02001622YS02001625        0.83      0.83      1.08      0.01         0.01
  YS02001625YS02001629        0.71      0.71      1.08      0.01         0.01
  YS02001629YS02163301        1.05      1.05      1.06      0.47         0.46
  YS02001633YS02163601        1.08      1.08      1.11      0.65         0.63
  YS02001641YS02001644        0.87      0.94      0.87      1.79         0.86
  YS02001644YS02001647        0.57      0.57      0.87      0.02         0.01
  YS02001647YS02001649        0.57      0.57      0.67      0.01         0.01
  YS02001649YS02001757        0.66      0.67      0.67      0.49         0.46
  YS02001652YS02001649        0.47      0.47      0.67      0.01         0.01
  YS02001655YS02001652        0.32      0.32      0.44      0.01         0.01
  YS02001658YS02001655        0.22      0.22      0.32      0.01         0.01
  YS02001661YS02001658        0.06      0.06      0.22      0.01         0.01
  YS02001664YS02001661        0.01      0.01      0.10      0.01         0.01
  YS02001745YS02001748        0.01      0.01      0.13      0.01         0.01
  YS02001748YS02001751        0.19      0.19      0.24      0.01         0.01
  YS02001751YS02001754        0.24      0.24      0.32      0.01         0.01
  YS02001754YS02001757        0.35      0.35      0.67      0.01         0.01
  YS02001757CaochengTiaoxuchi        0.15      0.67      0.73      0.61         0.07
  YS02001759YS02001757        0.55      0.55      0.67      0.01         0.03
  YS02001762YS02001759        0.49      0.49      0.55      0.01         0.03
  YS02001765YS02001762        0.46      0.46      0.49      0.01         0.01
  YS02001767YS02001765        0.44      0.44      0.46      0.02         0.05
  YS02001770YS02001767        0.44      0.46      0.44      0.72         0.43
  YS02001774YS02001770        0.43      0.43      0.49      0.01         0.01
  YS02001779YS02001774        0.35      0.35      0.49      0.01         0.01
  YS02001783YS02001784        0.67      0.69      0.67      0.84         0.67
  YS02001784YS02001785        0.55      0.67      0.55      1.14         0.55
  YS02001786YS02001788        0.01      0.55      0.01      0.97         0.01
  YS02001790YS02001791        0.01      0.01      0.01      0.65         0.01
  YS02001882YS02001884        0.63      0.63      0.64      0.01         0.01
  YS02001884YS02001887        0.67      0.67      0.68      0.01         0.01
  YS02001887YS02001890        0.70      0.70      0.71      0.17         0.01
  YS02001890YS02001895        0.62      0.62      0.73      0.01         0.01
  YS02001895YS02001898        0.61      0.61      0.62      0.01         0.01
  YS02001898YS02001901        0.62      0.62      0.67      0.01         0.01
  YS02001901YS02001904        0.66      0.66      0.67      0.01         0.01
  YS02001904YS02001907        0.66      0.66      0.95      0.01         0.01
  YS02001907YS02006553        1.15      1.15      1.24      0.01         0.01
  YS02001910YS02001907        0.72      0.72      0.90      0.01         0.01
  YS02001915YS02001910        0.63      0.63      0.72      0.01         0.01
  YS02001918YS02001915        0.54      0.54      0.63      0.01         0.01
  YS02001920YS02001918        0.54      0.54      0.55      0.01         0.01
  YS02001923YS02001920        0.49      0.49      0.55      0.01         0.01
  YS02001926YS02001923        0.17      0.17      0.20      0.01         0.01
  YS02001929YS02001926        0.01      0.01      0.20      0.01         0.01
  YS02006553YS02006556        0.81      0.81      0.94      0.01         0.01
  YS02006556YS02006558        0.87      0.87      0.97      0.01         0.01
  YS02006558YS02006561        0.57      0.80      0.57      1.08         0.57
  YS02006561YS02001783        0.50      0.50      0.69      0.01         0.01
  YS02163301YS02001633        1.06      1.06      1.10      0.01         0.02
  YS02163601YS02164001        0.96      0.96      1.11      0.37         0.01
  YS02164001YS02001641        0.94      0.96      0.94      0.95         0.72
  YSB1154YSB6556              1.05      1.05      1.24      0.08         0.01
  YSB1171HS02004479           0.91      0.91      1.24      0.01         0.01
  YSB1174YSB1171              1.15      1.15      1.50      0.01         0.01
  YSB6556YSB1171              1.05      1.05      1.67      0.01         0.01
  
  
  ***************
  Pumping Summary
  ***************
  
  ---------------------------------------------------------------------------------------------------------
                                                  Min       Avg       Max     Total     Power    % Time Off
                        Percent   Number of      Flow      Flow      Flow    Volume     Usage    Pump Curve
  Pump                 Utilized   Start-Ups       LPS       LPS       LPS  10^6 ltr     Kw-hr    Low   High
  ---------------------------------------------------------------------------------------------------------
  CC-R1                   30.27           4      0.00    683.00    683.00     5.955    100.42    0.0   70.0
  CC-R2                   30.27           4      0.00    683.00    683.00     5.955    100.42    0.0   70.0
  CC-S1                   30.27           4      0.00    200.00    200.00     1.744     14.57    0.0   20.2
  CC-S2                   30.27           4      0.00    200.00    200.00     1.744     14.57    0.0   20.2
  JK-R1                    8.71         425      0.00    993.33   1000.00     2.475      6.02    0.0    0.0
  JK-R2                    8.71         425      0.00    993.33   1000.00     2.475      6.02    0.0    0.0
  JK-S                     8.71         425      0.00    299.86    300.00     0.752     17.15    0.0    0.0
  XR-1                    97.91           2      0.00     95.00     95.00     2.679      9.63    0.0    0.0
  XR-2                    93.94           2      0.00     95.00     95.00     2.570      8.78    0.0    0.0
  XR-3                     0.00           1      0.00     95.00     95.00     0.000      0.00    0.0    0.0
  XR-4                     0.00           1      0.00     95.00     95.00     0.000      0.00    0.0    0.0
  

  Analysis begun on:  Thu Jul 20 17:11:04 2023
  Analysis ended on:  Thu Jul 20 17:11:28 2023
  Total elapsed time: 00:00:24