
  OWA STORM WATER MANAGEMENT MODEL - VERSION v5.1.14 (OWA 2022-07-31)
  --------------------------------------------------------------

  WARNING 04: minimum elevation drop used for Conduit WS02004404WS02004405
  WARNING 03: negative offset ignored for Link YS02001904YS02001907
  
  *********************************************************
  NOTE: The summary statistics displayed in this report are
  based on results found at every computational time step,  
  not just on results from each reporting time step.
  *********************************************************
  
  ****************
  Analysis Options
  ****************
  Flow Units ............... LPS
  Process Models:
    Rainfall/Runoff ........ YES
    RDII ................... NO
    Snowmelt ............... NO
    Groundwater ............ NO
    Flow Routing ........... YES
    Ponding Allowed ........ NO
    Water Quality .......... NO
  Infiltration Method ...... HORTON
  Flow Routing Method ...... DYNWAVE
  Surcharge Method ......... EXTRAN
  Starting Date ............ 08/28/2015 08:00:00
  Ending Date .............. 08/28/2015 16:00:00
  Antecedent Dry Days ...... 8.0
  Report Time Step ......... 00:01:00
  Wet Time Step ............ 00:01:00
  Dry Time Step ............ 00:01:00
  Routing Time Step ........ 30.00 sec
  Variable Time Step ....... YES
  Maximum Trials ........... 8
  Number of Threads ........ 4
  Head Tolerance ........... 0.001500 m
  
  
  **************************        Volume         Depth
  Runoff Quantity Continuity     hectare-m            mm
  **************************     ---------       -------
  Total Precipitation ......         3.607        59.536
  Evaporation Loss .........         0.000         0.000
  Infiltration Loss ........         0.241         3.982
  Surface Runoff ...........         3.305        54.561
  Final Storage ............         0.061         1.006
  Continuity Error (%) .....        -0.023
  
  
  **************************        Volume        Volume
  Flow Routing Continuity        hectare-m      10^6 ltr
  **************************     ---------     ---------
  Dry Weather Inflow .......         0.630         6.296
  Wet Weather Inflow .......         3.305        33.053
  Groundwater Inflow .......         0.000         0.000
  RDII Inflow ..............         0.000         0.000
  External Inflow ..........         0.105         1.045
  External Outflow .........         2.753        27.529
  Flooding Loss ............         1.467        14.671
  Evaporation Loss .........         0.000         0.000
  Exfiltration Loss ........         0.000         0.000
  Initial Stored Volume ....         0.303         3.031
  Final Stored Volume ......         0.185         1.848
  Continuity Error (%) .....        -1.435
  
  
  *************************
  Highest Continuity Errors
  *************************
  Node YS02001583 (-16.16%)
  Node JK-storage (-15.09%)
  Node YS02001884 (5.38%)
  Node HS02004842 (1.68%)
  Node YS02001774 (1.57%)
  
  
  ***************************
  Time-Step Critical Elements
  ***************************
  Link WS02006280WS02006229 (45.36%)
  Link YS02001793JiankangQianchi (21.22%)
  Link WS02006238WS02006235 (10.37%)
  Link WS02006252WS02006251 (6.02%)
  Link WS02003066WSF200 (3.77%)
  
  
  ********************************
  Highest Flow Instability Indexes
  ********************************
  Link WS02004404WS02004405 (34)
  Link WS02006113WS02006111 (32)
  Link WS02006256WS02006235 (29)
  Link WS02004403WS02004404 (29)
  Link WS02006229WS02006228 (28)
  
  
  *************************
  Routing Time Step Summary
  *************************
  Minimum Time Step           :     0.02 sec
  Average Time Step           :     2.44 sec
  Maximum Time Step           :     6.46 sec
  Percent in Steady State     :    -0.00
  Average Iterations per Step :     4.41
  Percent Not Converging      :    30.67
  
  
  ***************************
  Subcatchment Runoff Summary
  ***************************
  
  ------------------------------------------------------------------------------------------------------------------------------
                            Total      Total      Total      Total     Imperv       Perv      Total       Total     Peak  Runoff
                           Precip      Runon       Evap      Infil     Runoff     Runoff     Runoff      Runoff   Runoff   Coeff
  Subcatchment                 mm         mm         mm         mm         mm         mm         mm    10^6 ltr      LPS
  ------------------------------------------------------------------------------------------------------------------------------
  sub0                      66.00       0.00       0.00       1.01      60.13       3.61      63.74        0.05    36.48   0.966
  sub1                      66.00       0.00       0.00       1.74      57.49       5.52      63.01        0.42   256.82   0.955
  sub2                      66.00       0.00       0.00       7.81      40.68      16.61      57.29        0.53   276.07   0.868
  sub3                      66.00       0.00       0.00       8.48      40.63      15.94      56.58        1.27   601.89   0.857
  sub4                      66.00       0.00       0.00       1.96      57.32       5.30      62.62        1.31   651.53   0.949
  sub5                      66.00       0.00       0.00       1.07      60.08       3.55      63.63        0.72   441.54   0.964
  sub7                      66.00       0.00       0.00       1.35      58.82       4.59      63.41        0.21   141.65   0.961
  sub8                      66.00       0.00       0.00       1.37      58.81       4.57      63.38        0.41   261.18   0.960
  sub9                      66.00       0.00       0.00       1.37      58.80       4.57      63.38        0.30   195.37   0.960
  sub10                     66.00       0.00       0.00       1.22      59.44       4.06      63.50        0.70   435.95   0.962
  sub11                     66.00       0.00       0.00       1.20      59.46       4.08      63.54        0.74   480.18   0.963
  sub12                     66.00       0.00       0.00       1.96      56.25       6.63      62.87        0.55   380.64   0.953
  sub14                     66.00       0.00       0.00       1.37      58.80       4.57      63.37        0.60   384.68   0.960
  sub15                     66.00       0.00       0.00       5.46      45.23      14.35      59.58        1.02   613.64   0.903
  sub16                     66.00       0.00       0.00       5.62      43.31      16.16      59.48        0.62   407.48   0.901
  sub17                     66.00       0.00       0.00       5.48      43.96      15.64      59.60        0.51   331.35   0.903
  sub22                     66.00       0.00       0.00       8.28      36.84      20.10      56.94        3.60  2087.00   0.863
  sub23                     66.00       0.00       0.00       6.74      40.72      17.68      58.40        2.79  1704.89   0.885
  sub60                     54.19       0.00       0.00       1.78      46.49       4.73      51.22        0.67   419.46   0.945
  sub61                     54.19       0.00       0.00       2.57      43.85       6.65      50.50        0.93   575.93   0.932
  sub62                     54.19       0.00       0.00       1.19      48.57       3.15      51.73        1.42   806.24   0.954
  sub63                     54.19       0.00       0.00       4.70      37.51      11.03      48.53        1.10   618.79   0.896
  sub64                     54.19       0.00       0.00       2.38      44.86       5.75      50.61        1.22   637.28   0.934
  sub65                     54.19       0.00       0.00       2.06      45.90       4.99      50.89        1.40   709.59   0.939
  sub66                     54.19       0.00       0.00       5.72      37.41      10.00      47.41        2.21   887.44   0.875
  sub67                     54.19       0.00       0.00       1.15      48.62       3.19      51.80        0.96   643.97   0.956
  sub68                     54.19       0.00       0.00       2.13      45.42       5.46      50.88        1.40   823.12   0.939
  sub69                     54.19       0.00       0.00       1.86      45.96       6.27      52.22        1.93   958.33   0.964
  sub70                     54.19       0.00       0.00       6.08      35.61      12.34      47.95        1.39   503.79   0.885
  sub71                     54.19       0.00       0.00       1.21      48.53       3.13      51.66        1.35   694.22   0.953
  sub72                     54.19       0.00       0.00       1.08      49.00       2.72      51.72        0.71   328.82   0.954
  
  
  ******************
  Node Depth Summary
  ******************
  
  ---------------------------------------------------------------------------------
                                 Average  Maximum  Maximum  Time of Max    Reported
                                   Depth    Depth      HGL   Occurrence   Max Depth
  Node                 Type       Meters   Meters   Meters  days hr:min      Meters
  ---------------------------------------------------------------------------------
  HS02004478           JUNCTION     0.27     1.59    10.82     0  02:28        1.58
  HS02004479           JUNCTION     0.35     1.70    10.90     0  02:15        1.68
  HS02004480           JUNCTION     0.32     1.67    10.91     0  02:15        1.63
  HS02004770           JUNCTION     0.31     1.42    11.25     0  02:12        1.42
  HS02004777           JUNCTION     0.33     1.48    11.28     0  02:12        1.45
  HS02004785           JUNCTION     0.23     1.49    11.39     0  02:12        1.35
  HS02004788           JUNCTION     0.19     1.42    11.32     0  02:12        1.35
  HS02004792           JUNCTION     0.26     1.60    11.12     0  02:13        1.60
  HS02004799           JUNCTION     0.38     1.76    10.97     0  02:15        1.76
  HS02004802           JUNCTION     0.37     1.80    10.93     0  02:24        1.79
  HS02004807           JUNCTION     0.34     1.92    11.09     0  02:15        1.92
  HS02004817           JUNCTION     0.64     2.43    11.28     0  02:15        2.41
  HS02004824           JUNCTION     0.21     2.01    11.41     0  02:15        2.01
  HS02004830           JUNCTION     0.21     2.03    11.50     0  02:15        1.98
  HS02004837           JUNCTION     0.17     2.04    11.62     0  02:15        1.90
  HS02004842           JUNCTION     0.46     2.22    11.49     0  02:15        2.22
  HS02004848           JUNCTION     0.15     2.07    11.67     0  02:15        1.90
  HS02004852           JUNCTION     0.16     2.12    11.63     0  02:15        1.95
  HS02004856           JUNCTION     0.22     2.07    11.50     0  02:15        2.02
  HS02004862           JUNCTION     0.18     2.00    11.38     0  02:15        2.00
  HS02004870           JUNCTION     0.17     2.10    11.39     0  02:15        1.99
  HS02004876           JUNCTION     0.22     2.14    11.17     0  02:15        2.07
  HS02004881           JUNCTION     0.15     1.92    10.95     0  02:15        1.81
  HS02004901           JUNCTION     0.32     1.42    11.24     0  02:12        1.42
  WS02001211           JUNCTION     0.64     0.82     5.65     0  02:28        0.82
  WS02001212           JUNCTION     0.38     0.58     5.64     0  02:28        0.58
  WS02001213           JUNCTION     0.59     0.87     5.63     0  02:27        0.87
  WS02003059           JUNCTION     0.66     0.94     5.63     0  02:27        0.94
  WS02003060           JUNCTION     0.38     0.69     5.62     0  02:26        0.69
  WS02003066           JUNCTION     0.23     0.46     6.01     0  02:25        0.46
  WS02003067           JUNCTION     0.55     0.89     6.21     0  02:24        0.89
  WS02003069           JUNCTION     0.43     0.78     5.37     0  02:27        0.78
  WS02003072           JUNCTION     0.49     0.82     5.19     0  02:27        0.82
  WS02003073           JUNCTION     0.29     0.52     4.58     0  02:27        0.52
  WS02004138           JUNCTION     0.13     0.14     7.39     0  00:32        0.14
  WS02004139           JUNCTION     0.57     0.75     5.66     0  02:28        0.75
  WS02004401           JUNCTION     0.80     1.90     7.90     0  02:24        1.89
  WS02004402           JUNCTION     0.82     1.84     7.80     0  02:25        1.83
  WS02004403           JUNCTION     0.82     1.76     7.69     0  02:24        1.76
  WS02004404           JUNCTION     0.87     1.77     7.62     0  02:25        1.76
  WS02004405           JUNCTION     0.86     1.72     7.57     0  02:25        1.71
  WS02004406           JUNCTION     0.84     1.60     7.43     0  02:24        1.59
  WS02004407           JUNCTION     0.28     0.96     7.27     0  02:25        0.95
  WS02004409           JUNCTION     0.56     1.41     7.18     0  02:25        1.40
  WS02004410           JUNCTION     0.56     1.31     7.03     0  02:25        1.30
  WS02004411           JUNCTION     0.56     1.22     6.90     0  02:24        1.21
  WS02004412           JUNCTION     0.56     1.11     6.75     0  02:25        1.11
  WS02004413           JUNCTION     0.69     1.15     6.62     0  02:25        1.15
  WS02006109           JUNCTION     1.06     2.64     9.26     0  02:12        2.64
  WS02006110           JUNCTION     0.98     2.41     8.99     0  02:24        2.40
  WS02006111           JUNCTION     0.49     1.78     8.48     0  02:25        1.76
  WS02006112           JUNCTION     1.04     2.42     8.31     0  02:24        2.42
  WS02006113           JUNCTION     0.56     1.84     8.74     0  02:24        1.84
  WS02006115           JUNCTION     0.74     2.00     8.14     0  02:24        2.00
  WS02006116           JUNCTION     0.80     1.99     8.03     0  02:24        1.99
  WS02006228           JUNCTION     1.13     3.03     9.68     0  02:28        3.03
  WS02006229           JUNCTION     1.14     3.23     9.92     0  02:23        3.22
  WS02006230           JUNCTION     1.06     2.65     9.39     0  01:38        2.65
  WS02006231           JUNCTION     0.77     2.24     9.36     0  01:50        2.24
  WS02006232           JUNCTION     0.85     2.18     9.22     0  01:45        2.18
  WS02006234           JUNCTION     0.73     1.96     9.12     0  01:40        1.96
  WS02006235           JUNCTION     0.73     2.00     9.16     0  01:38        2.00
  WS02006238           JUNCTION     0.76     2.15     9.29     0  01:43        2.15
  WS02006239           JUNCTION     0.69     2.03     9.24     0  01:43        2.03
  WS02006240           JUNCTION     0.64     2.10     9.39     0  01:45        2.10
  WS02006242           JUNCTION     0.66     1.55     8.82     0  01:38        1.55
  WS02006243           JUNCTION     0.56     1.48     8.90     0  01:38        1.48
  WS02006245           JUNCTION     0.53     1.56     9.04     0  01:38        1.56
  WS02006247           JUNCTION     0.53     1.47     8.97     0  01:38        1.47
  WS02006248           JUNCTION     0.48     1.10     8.69     0  01:38        1.10
  WS02006249           JUNCTION     0.50     1.09     8.69     0  01:38        1.09
  WS02006251           JUNCTION     0.63     2.17     9.84     0  02:15        2.15
  WS02006252           JUNCTION     0.43     1.50     9.74     0  00:00        1.50
  WS02006253           JUNCTION     0.72     3.09    10.73     0  02:24        3.08
  WS02006256           JUNCTION     1.00     2.35     9.28     0  00:00        2.35
  WS02006280           JUNCTION     0.35     1.74    10.01     0  02:23        1.73
  WS02006284           JUNCTION     0.60     1.95    10.35     0  02:22        1.94
  WS02006287           JUNCTION     0.34     1.74    10.70     0  02:25        1.73
  WSF200               JUNCTION     0.23     0.53     5.76     0  02:25        0.53
  YS02001580           JUNCTION     0.12     1.05     9.59     0  01:36        0.77
  YS02001583           JUNCTION     0.15     1.14     9.64     0  01:36        0.82
  YS02001586           JUNCTION     0.24     1.13     9.30     0  01:35        1.13
  YS02001590           JUNCTION     0.34     1.40     9.26     0  01:35        1.37
  YS02001593           JUNCTION     0.28     1.46     9.32     0  01:35        1.29
  YS02001596           JUNCTION     0.37     1.78     9.20     0  01:35        1.66
  YS02001600           JUNCTION     0.45     1.87     9.00     0  01:35        1.86
  YS02001601           JUNCTION     0.64     2.06     8.90     0  01:35        2.06
  YS02001602           JUNCTION     0.54     1.87     8.77     0  01:36        1.87
  YS02001605           JUNCTION     0.50     1.78     8.68     0  01:36        1.78
  YS02001607           JUNCTION     0.47     1.68     8.53     0  01:36        1.64
  YS02001610           JUNCTION     0.51     1.68     8.48     0  01:36        1.68
  YS02001613           JUNCTION     0.47     1.66     8.50     0  01:36        1.65
  YS02001616           JUNCTION     0.41     1.61     8.52     0  01:36        1.61
  YS02001619           JUNCTION     0.38     1.61     8.54     0  01:36        1.61
  YS02001622           JUNCTION     0.37     1.58     8.48     0  01:36        1.56
  YS02001625           JUNCTION     0.62     1.78     8.38     0  01:36        1.78
  YS02001629           JUNCTION     0.50     1.85     8.40     0  01:36        1.85
  YS02001633           JUNCTION     0.57     2.06     8.52     0  01:38        1.99
  YS02001641           JUNCTION     0.53     2.00     8.44     0  01:39        1.93
  YS02001644           JUNCTION     0.52     1.92     8.35     0  01:38        1.92
  YS02001647           JUNCTION     0.30     1.81     8.42     0  01:39        1.71
  YS02001649           JUNCTION     0.33     2.05     8.44     0  01:39        1.88
  YS02001652           JUNCTION     0.22     2.06     8.65     0  01:39        1.73
  YS02001655           JUNCTION     0.15     2.20     9.05     0  01:38        1.53
  YS02001658           JUNCTION     0.11     2.30     9.44     0  01:39        1.27
  YS02001661           JUNCTION     0.15     1.67     9.08     0  01:40        1.03
  YS02001664           JUNCTION     0.06     0.68     8.60     0  01:39        0.67
  YS02001745           JUNCTION     0.06     2.22     9.73     0  01:39        0.66
  YS02001748           JUNCTION     0.10     2.27     9.35     0  01:39        1.08
  YS02001751           JUNCTION     0.12     2.20     9.08     0  01:39        1.27
  YS02001754           JUNCTION     0.17     2.20     8.81     0  01:38        1.54
  YS02001757           JUNCTION     0.33     2.21     8.47     0  01:39        1.89
  YS02001759           JUNCTION     0.27     2.18     8.55     0  01:39        1.86
  YS02001762           JUNCTION     0.27     2.14     8.54     0  01:39        1.85
  YS02001765           JUNCTION     0.25     2.07     8.52     0  01:39        1.84
  YS02001767           JUNCTION     0.24     2.03     8.52     0  01:38        1.84
  YS02001770           JUNCTION     0.26     1.95     8.44     0  01:38        1.89
  YS02001774           JUNCTION     0.32     2.03     8.45     0  01:39        1.96
  YS02001779           JUNCTION     0.15     1.68     8.37     0  01:38        1.68
  YS02001783           JUNCTION     0.29     1.34     7.48     0  01:37        1.23
  YS02001784           JUNCTION     0.30     1.21     7.28     0  01:37        1.13
  YS02001786           JUNCTION     0.25     1.11     7.14     0  01:37        0.87
  YS02001788           JUNCTION     0.18     0.62     6.60     0  01:38        0.62
  YS02001790           JUNCTION     0.21     0.72     6.36     0  01:44        0.71
  YS02001791           JUNCTION     0.13     0.43     5.90     0  01:41        0.43
  YS02001793           JUNCTION     0.08     0.26     5.09     0  01:42        0.25
  YS02001882           JUNCTION     0.36     1.83     8.55     0  01:36        1.70
  YS02001884           JUNCTION     0.44     1.91     8.53     0  01:36        1.80
  YS02001887           JUNCTION     0.52     1.94     8.47     0  01:36        1.87
  YS02001890           JUNCTION     0.55     1.81     8.32     0  01:36        1.81
  YS02001895           JUNCTION     0.33     1.71     8.46     0  01:36        1.61
  YS02001898           JUNCTION     0.34     1.77     8.51     0  01:36        1.77
  YS02001901           JUNCTION     0.44     1.87     8.48     0  01:37        1.87
  YS02001904           JUNCTION     0.42     1.85     8.48     0  01:37        1.85
  YS02001907           JUNCTION     0.73     1.96     8.25     0  01:37        1.96
  YS02001910           JUNCTION     0.54     2.10     8.61     0  01:37        1.82
  YS02001915           JUNCTION     0.36     2.00     8.72     0  01:37        1.71
  YS02001918           JUNCTION     0.21     1.81     8.88     0  01:37        1.33
  YS02001920           JUNCTION     0.29     2.10     9.11     0  01:38        1.39
  YS02001923           JUNCTION     0.16     2.03     9.29     0  01:38        1.27
  YS02001926           JUNCTION     0.19     1.90     9.35     0  01:38        1.10
  YS02001929           JUNCTION     0.11     1.78     9.47     0  01:38        0.88
  YS02006553           JUNCTION     0.73     2.01     8.30     0  01:39        2.01
  YS02006556           JUNCTION     0.70     2.01     8.33     0  01:37        1.95
  YS02006558           JUNCTION     0.74     2.04     8.31     0  01:37        2.02
  YS02006561           JUNCTION     0.18     1.01     7.67     0  01:37        0.90
  YS02163301           JUNCTION     0.52     1.94     8.46     0  01:38        1.90
  YS02163601           JUNCTION     0.59     2.08     8.48     0  01:38        2.00
  YS02164001           JUNCTION     0.52     2.02     8.48     0  01:39        1.92
  YSB1154              JUNCTION     0.48     1.93    10.99     0  02:24        1.93
  YSB1171              JUNCTION     0.62     1.95    10.85     0  02:15        1.95
  YSB1174              JUNCTION     0.43     1.81    10.92     0  02:24        1.81
  YSB6556              JUNCTION     0.38     1.75    10.92     0  02:25        1.75
  CC-1                 OUTFALL      0.00     0.00     0.00     0  00:00        0.00
  CC-2                 OUTFALL      0.00     0.00     0.00     0  00:00        0.00
  JK-1                 OUTFALL      0.00     0.00     0.00     0  00:00        0.00
  JK-2                 OUTFALL      0.00     0.00     0.00     0  00:00        0.00
  WSC                  OUTFALL      0.29     0.52     1.19     0  02:28        0.52
  CC-storage           STORAGE      0.20     0.80     6.30     0  00:00        0.77
  JK-storage           STORAGE      0.05     2.99     3.79     0  00:00        0.68
  XR-storage           STORAGE      7.79     9.26     7.26     0  08:00        9.26
  
  
  *******************
  Node Inflow Summary
  *******************
  
  -------------------------------------------------------------------------------------------------
                                  Maximum  Maximum                  Lateral       Total        Flow
                                  Lateral    Total  Time of Max      Inflow      Inflow     Balance
                                   Inflow   Inflow   Occurrence      Volume      Volume       Error
  Node                 Type           LPS      LPS  days hr:min    10^6 ltr    10^6 ltr     Percent
  -------------------------------------------------------------------------------------------------
  HS02004478           JUNCTION      0.00  2304.97     0  02:23           0        9.03      -0.009
  HS02004479           JUNCTION      0.00   386.28     0  02:17           0       0.894       0.086
  HS02004480           JUNCTION      0.00  2056.87     0  02:15           0        6.71       0.027
  HS02004770           JUNCTION   1704.89  1704.89     0  02:25        2.79        3.03       0.092
  HS02004777           JUNCTION      0.03   683.76     0  02:12    0.000864        1.96       0.265
  HS02004785           JUNCTION      0.15   686.91     0  02:12     0.00432        1.96       0.016
  HS02004788           JUNCTION    615.31   857.74     0  02:13        1.07        3.04       0.002
  HS02004792           JUNCTION   2087.28  2923.51     0  02:25        3.61        6.64       0.003
  HS02004799           JUNCTION    384.68  1719.15     0  02:13       0.603        6.02       0.042
  HS02004802           JUNCTION      0.00  1233.83     0  02:27           0        2.46       0.159
  HS02004807           JUNCTION    480.18  1640.38     0  02:25       0.738        2.59       0.157
  HS02004817           JUNCTION      0.60  1167.01     0  02:25      0.0173         1.9       0.877
  HS02004824           JUNCTION    651.58  1165.77     0  02:25        1.31        2.08       0.017
  HS02004830           JUNCTION      0.15   560.07     0  02:13     0.00432       0.964       0.118
  HS02004837           JUNCTION    442.30   736.71     0  02:15       0.883         1.3       0.053
  HS02004842           JUNCTION      0.00   736.47     0  02:15           0       0.755       1.711
  HS02004848           JUNCTION    601.89   977.15     0  02:15        1.27        1.85      -0.020
  HS02004852           JUNCTION      0.00   962.69     0  02:15           0        1.68      -0.034
  HS02004856           JUNCTION    195.37   997.58     0  02:15       0.305        1.98       0.082
  HS02004862           JUNCTION    276.27  1083.52     0  02:15        0.54        2.52      -0.012
  HS02004870           JUNCTION    261.18  1245.48     0  02:25       0.405        2.93       0.001
  HS02004876           JUNCTION    256.82  1502.24     0  02:25       0.419        3.35       0.013
  HS02004881           JUNCTION    141.65  1643.53     0  02:25       0.214        3.56       0.000
  HS02004901           JUNCTION    407.48   672.62     0  02:25       0.623       0.974       0.161
  WS02001211           JUNCTION      7.35   204.23     0  03:19       0.212        5.44       0.611
  WS02001212           JUNCTION      0.00   210.85     0  03:01           0        5.41       0.273
  WS02001213           JUNCTION      0.00   215.75     0  03:20           0        5.39       0.347
  WS02003059           JUNCTION      0.00   222.68     0  03:20           0        5.38       0.596
  WS02003060           JUNCTION     16.53  1518.90     0  02:26       0.476        14.1       0.103
  WS02003066           JUNCTION      0.00  1319.12     0  02:25           0        8.31       0.019
  WS02003067           JUNCTION      0.00  1318.71     0  02:25           0        8.32       0.052
  WS02003069           JUNCTION      0.32  1519.01     0  02:26     0.00922        14.1       0.110
  WS02003072           JUNCTION      0.00  1518.73     0  02:27           0        14.1       0.148
  WS02003073           JUNCTION      1.82  1520.85     0  02:27      0.0524        14.1       0.153
  WS02004138           JUNCTION      0.00   380.00     0  00:00           0        5.25       0.053
  WS02004139           JUNCTION      0.32   190.32     0  00:32     0.00924        5.26       0.508
  WS02004401           JUNCTION      0.00  1318.99     0  02:24           0        8.42       0.126
  WS02004402           JUNCTION      0.00  1319.24     0  02:25           0        8.41       0.128
  WS02004403           JUNCTION      0.00  1319.12     0  02:24           0         8.4       0.124
  WS02004404           JUNCTION      0.16  1320.15     0  02:25     0.00467         8.4       0.105
  WS02004405           JUNCTION      0.04  1319.50     0  02:25      0.0011        8.39       0.148
  WS02004406           JUNCTION      0.00  1320.03     0  02:25           0        8.38       0.258
  WS02004407           JUNCTION      0.00  1319.72     0  02:25           0        8.35       0.016
  WS02004409           JUNCTION      0.00  1318.41     0  02:25           0        8.35       0.036
  WS02004410           JUNCTION      0.00  1318.81     0  02:25           0        8.35       0.058
  WS02004411           JUNCTION      0.00  1318.68     0  02:25           0        8.35       0.072
  WS02004412           JUNCTION      0.00  1318.52     0  02:25           0        8.34       0.094
  WS02004413           JUNCTION      0.00  1318.56     0  02:25           0        8.33       0.172
  WS02006109           JUNCTION      1.23  1289.68     0  02:23      0.0354        8.23       0.127
  WS02006110           JUNCTION      0.00  1125.47     0  02:40           0        7.95       0.095
  WS02006111           JUNCTION      0.00  1125.78     0  02:40           0        7.94       0.014
  WS02006112           JUNCTION    331.35  1319.06     0  02:25       0.511        8.45       0.242
  WS02006113           JUNCTION      0.00  1125.44     0  02:40           0        7.94       0.025
  WS02006115           JUNCTION      0.00  1319.00     0  02:24           0        8.43       0.089
  WS02006116           JUNCTION      0.00  1319.16     0  02:24           0        8.43       0.020
  WS02006228           JUNCTION      0.00  1288.90     0  02:24           0         8.2       0.052
  WS02006229           JUNCTION      0.00  2305.59     0  02:23           0        10.7       0.083
  WS02006230           JUNCTION     10.28  1026.16     0  02:23       0.296        4.13       0.184
  WS02006231           JUNCTION      0.00   453.30     0  02:50           0        2.87      -0.068
  WS02006232           JUNCTION      0.00   453.33     0  02:41           0        2.87       0.217
  WS02006234           JUNCTION      0.00   453.34     0  02:50           0        2.85      -0.199
  WS02006235           JUNCTION      0.00   436.51     0  01:37           0        2.79       0.264
  WS02006238           JUNCTION      0.00   407.90     0  02:12           0        2.62      -0.177
  WS02006239           JUNCTION      0.00   405.89     0  02:08           0        2.58      -0.175
  WS02006240           JUNCTION      0.00   406.17     0  02:08           0        2.56      -0.002
  WS02006242           JUNCTION      0.00   418.01     0  01:37           0        2.57      -0.003
  WS02006243           JUNCTION      0.00   451.43     0  01:37           0         2.2      -0.159
  WS02006245           JUNCTION      0.00   480.26     0  01:36           0        2.22       0.621
  WS02006247           JUNCTION      0.00   475.78     0  01:37           0        2.22      -0.074
  WS02006248           JUNCTION      0.00   498.10     0  01:36           0        2.48      -0.020
  WS02006249           JUNCTION      0.00  1372.55     0  02:25           0         5.8       0.145
  WS02006251           JUNCTION      0.08  1680.04     0  02:25     0.00222        5.97      -0.043
  WS02006252           JUNCTION      0.00   708.32     0  02:25           0         2.9      -0.088
  WS02006253           JUNCTION     36.48  1679.77     0  02:25      0.0516        3.65       0.034
  WS02006256           JUNCTION      0.00   316.65     0  01:33           0        0.61       1.021
  WS02006280           JUNCTION      0.00  2304.12     0  02:23           0        9.01      -0.002
  WS02006284           JUNCTION      0.10  2304.97     0  02:23     0.00275        9.01       0.004
  WS02006287           JUNCTION      0.00  2304.89     0  02:23           0        9.01       0.008
  WSF200               JUNCTION      0.00  1319.25     0  02:25           0        8.31       0.007
  YS02001580           JUNCTION      0.00   253.88     0  01:36           0     0.00458       2.399
  YS02001583           JUNCTION      0.00   257.25     0  01:36           0      0.0146     -13.912
  YS02001586           JUNCTION    503.79   503.81     0  01:43        1.39         1.4       0.142
  YS02001590           JUNCTION      0.00   318.02     0  01:50           0        1.22      -0.031
  YS02001593           JUNCTION      0.00   317.94     0  01:50           0        1.23       0.028
  YS02001596           JUNCTION      0.00   317.82     0  01:47           0        1.22       0.012
  YS02001600           JUNCTION      0.00   317.91     0  01:46           0        1.22       0.017
  YS02001601           JUNCTION    958.33  1275.75     0  01:41        1.93        3.16       0.033
  YS02001602           JUNCTION      0.00   589.30     0  01:36           0        2.19       0.025
  YS02001605           JUNCTION      0.00   589.50     0  01:36           0        2.12       0.029
  YS02001607           JUNCTION      0.00   589.25     0  01:36           0        2.12       0.070
  YS02001610           JUNCTION      0.00   559.33     0  01:36           0        2.13       0.118
  YS02001613           JUNCTION      0.00   530.67     0  01:36           0        1.81       0.084
  YS02001616           JUNCTION      0.00   513.02     0  02:09           0        1.81       0.008
  YS02001619           JUNCTION    887.44   947.60     0  01:59        2.21        4.01      -0.007
  YS02001622           JUNCTION      0.00   947.00     0  01:59           0        3.99       0.009
  YS02001625           JUNCTION      0.00  1031.04     0  01:43           0        4.02       0.234
  YS02001629           JUNCTION      0.00   946.74     0  01:59           0        3.53       0.019
  YS02001633           JUNCTION    709.79  1358.10     0  01:37        1.41        4.88       0.074
  YS02001641           JUNCTION      0.00  1351.60     0  01:37           0        4.85       0.061
  YS02001644           JUNCTION    637.32  1889.22     0  01:37        1.22        6.06       0.056
  YS02001647           JUNCTION      0.00  1892.67     0  01:37           0        5.98       0.008
  YS02001649           JUNCTION      0.00  2177.15     0  01:38           0        7.09       0.007
  YS02001652           JUNCTION      0.00   814.70     0  01:40           0        1.11      -0.163
  YS02001655           JUNCTION      0.15   814.48     0  01:40     0.00443        1.11       0.013
  YS02001658           JUNCTION      0.00   814.19     0  01:40           0         1.1      -0.057
  YS02001661           JUNCTION      0.00   758.22     0  01:40           0         1.1       0.018
  YS02001664           JUNCTION    618.79   618.79     0  01:40         1.1         1.1      -0.009
  YS02001745           JUNCTION    419.46   660.72     0  01:39       0.673       0.675       0.154
  YS02001748           JUNCTION      0.04   706.74     0  01:38      0.0013        0.68      -0.341
  YS02001751           JUNCTION      0.01   590.57     0  01:39    0.000317       0.688       0.176
  YS02001754           JUNCTION      0.26   591.04     0  01:39     0.00749       0.702      -0.218
  YS02001757           JUNCTION      0.00  3312.15     0  01:39           0        10.1       0.021
  YS02001759           JUNCTION    575.97  1385.83     0  01:39       0.928        2.34      -0.005
  YS02001762           JUNCTION      0.00   809.26     0  01:39           0        1.42       0.010
  YS02001765           JUNCTION      0.00   807.68     0  01:39           0        1.42       0.009
  YS02001767           JUNCTION      0.54   805.87     0  01:39      0.0154        1.41       0.003
  YS02001770           JUNCTION    806.39   812.65     0  01:39        1.42        1.46      -0.034
  YS02001774           JUNCTION      0.00   615.12     0  01:38           0      0.0818       1.591
  YS02001779           JUNCTION      0.01   623.35     0  01:38    0.000144      0.0392      -2.177
  YS02001783           JUNCTION      0.00  1157.52     0  01:38           0        3.74       0.007
  YS02001784           JUNCTION      1.06  1158.68     0  01:38      0.0305        3.77       0.014
  YS02001786           JUNCTION      0.06  1158.89     0  01:38     0.00162        3.78       0.019
  YS02001788           JUNCTION      0.07  1159.65     0  01:38     0.00204        3.78       0.007
  YS02001790           JUNCTION      0.15  1176.05     0  01:39     0.00446        3.78       0.002
  YS02001791           JUNCTION      0.00  1282.10     0  01:41           0        3.78       0.002
  YS02001793           JUNCTION      0.00  1234.81     0  01:38           0        3.78      -0.057
  YS02001882           JUNCTION      0.00   126.50     0  01:36           0       0.013       4.633
  YS02001884           JUNCTION      0.00   150.33     0  01:36           0      0.0485       5.685
  YS02001887           JUNCTION    644.42   646.99     0  01:39       0.976        1.01       0.455
  YS02001890           JUNCTION      0.00   648.55     0  01:39           0       0.968       0.523
  YS02001895           JUNCTION      0.00   633.23     0  01:37           0        0.94       0.167
  YS02001898           JUNCTION      0.00   635.09     0  01:37           0       0.938       0.007
  YS02001901           JUNCTION      0.00   637.44     0  01:37           0       0.941       0.357
  YS02001904           JUNCTION      0.00   638.27     0  01:37           0       0.948       0.290
  YS02001907           JUNCTION      0.00  1656.91     0  01:39           0        3.09       0.585
  YS02001910           JUNCTION      0.00  1118.74     0  01:39           0        2.15       0.345
  YS02001915           JUNCTION    694.24  1118.51     0  01:39        1.35         2.2       0.051
  YS02001918           JUNCTION      0.00   826.32     0  01:37           0       0.888      -0.003
  YS02001920           JUNCTION      2.87   760.73     0  01:37      0.0827       0.859       0.137
  YS02001923           JUNCTION      0.04  1007.59     0  01:37     0.00109       0.757      -0.104
  YS02001926           JUNCTION      0.05  1272.82     0  01:38      0.0015       0.736      -0.212
  YS02001929           JUNCTION    328.82   923.86     0  01:38       0.711       0.718      -0.069
  YS02006553           JUNCTION      0.00   789.84     0  01:56           0        2.37       0.505
  YS02006556           JUNCTION      0.00   790.07     0  01:56           0        2.38       0.345
  YS02006558           JUNCTION    824.00  1161.92     0  01:37        1.43        3.78       0.089
  YS02006561           JUNCTION      0.00  1170.28     0  01:37           0        3.74       0.002
  YS02163301           JUNCTION      0.00   948.08     0  01:59           0        3.52       0.045
  YS02163601           JUNCTION      0.11  1357.42     0  01:37     0.00317        4.84       0.104
  YS02164001           JUNCTION      0.00  1356.06     0  01:37           0        4.84       0.053
  YSB1154              JUNCTION    441.54   441.54     0  02:25       0.721       0.722       0.199
  YSB1171              JUNCTION      0.00  1054.63     0  02:25           0        1.38       0.437
  YSB1174              JUNCTION    380.64   380.64     0  02:25        0.55        0.55       0.223
  YSB6556              JUNCTION      0.00   441.46     0  02:25           0       0.723       0.152
  CC-1                 OUTFALL       0.00   683.00     0  00:00           0        4.74       0.000
  CC-2                 OUTFALL       0.00   683.00     0  00:00           0        4.74       0.000
  JK-1                 OUTFALL       0.00  1000.00     0  00:00           0        1.96       0.000
  JK-2                 OUTFALL       0.00  1000.00     0  00:00           0        1.96       0.000
  WSC                  OUTFALL       0.00  1521.37     0  02:28           0        14.1       0.000
  CC-storage           STORAGE       0.00  3268.19     0  01:39           0        12.3      -0.357
  JK-storage           STORAGE       0.00  1320.44     0  01:42           0        3.93     -13.114
  XR-storage           STORAGE     200.00   200.00     0  00:00        5.76        6.36       0.001
  
  
  **********************
  Node Surcharge Summary
  **********************
  
  Surcharging occurs when water rises above the top of the highest conduit.
  ---------------------------------------------------------------------
                                               Max. Height   Min. Depth
                                   Hours       Above Crown    Below Rim
  Node                 Type      Surcharged         Meters       Meters
  ---------------------------------------------------------------------
  HS02004478           JUNCTION        0.50          0.669        0.271
  HS02004479           JUNCTION        0.64          0.897        0.153
  HS02004480           JUNCTION        0.68          0.959        0.141
  HS02004770           JUNCTION        0.57          0.720        0.000
  HS02004777           JUNCTION        0.58          0.780        0.000
  HS02004785           JUNCTION        0.53          0.790        0.000
  HS02004788           JUNCTION        0.52          0.720        0.000
  HS02004792           JUNCTION        0.65          0.900        0.000
  HS02004799           JUNCTION        0.79          1.060        0.000
  HS02004802           JUNCTION        0.70          1.094        0.116
  HS02004807           JUNCTION        0.67          1.220        0.000
  HS02004817           JUNCTION        1.28          1.733        0.007
  HS02004824           JUNCTION        0.53          1.310        0.000
  HS02004830           JUNCTION        0.50          1.330        0.000
  HS02004837           JUNCTION        0.46          1.340        0.000
  HS02004842           JUNCTION        0.59          1.520        0.000
  HS02004848           JUNCTION        0.42          1.370        0.000
  HS02004852           JUNCTION        0.44          1.420        0.000
  HS02004856           JUNCTION        0.44          1.300        0.000
  HS02004862           JUNCTION        0.47          1.300        0.000
  HS02004870           JUNCTION        0.49          1.400        0.000
  HS02004876           JUNCTION        0.56          1.436        0.124
  HS02004881           JUNCTION        0.54          1.221        0.229
  HS02004901           JUNCTION        0.58          0.720        0.000
  WS02004401           JUNCTION        1.59          0.899        0.761
  WS02004402           JUNCTION        1.60          0.841        0.899
  WS02004403           JUNCTION        1.60          0.764        1.266
  WS02004404           JUNCTION        1.66          0.768        2.012
  WS02004405           JUNCTION        1.65          0.715        2.085
  WS02004406           JUNCTION        1.64          0.601        1.849
  WS02004409           JUNCTION        1.10          0.406        1.954
  WS02004410           JUNCTION        1.01          0.313        2.227
  WS02004411           JUNCTION        0.91          0.215        2.315
  WS02004412           JUNCTION        0.82          0.112        2.198
  WS02004413           JUNCTION        1.38          0.149        2.051
  WS02006109           JUNCTION        1.93          1.820        0.000
  WS02006110           JUNCTION        1.70          1.498        0.352
  WS02006111           JUNCTION        1.32          0.966        0.904
  WS02006112           JUNCTION        1.76          1.425        0.255
  WS02006113           JUNCTION        1.35          1.045        0.885
  WS02006115           JUNCTION        1.55          0.991        1.259
  WS02006116           JUNCTION        1.56          0.932        1.358
  WS02006228           JUNCTION        1.91          2.200        0.000
  WS02006229           JUNCTION        0.94          1.046        0.024
  WS02006230           JUNCTION        1.63          1.570        0.000
  WS02006231           JUNCTION        1.64          1.530        0.000
  WS02006232           JUNCTION        1.87          1.480        0.000
  WS02006234           JUNCTION        1.64          1.240        0.000
  WS02006235           JUNCTION        1.73          1.290        0.000
  WS02006238           JUNCTION        1.78          1.430        0.000
  WS02006239           JUNCTION        1.71          1.290        0.000
  WS02006240           JUNCTION        1.71          1.390        0.000
  WS02006242           JUNCTION        1.83          0.820        0.000
  WS02006243           JUNCTION        1.72          0.770        0.000
  WS02006245           JUNCTION        1.71          0.850        0.000
  WS02006247           JUNCTION        1.74          0.760        0.000
  WS02006248           JUNCTION        1.68          0.380        0.000
  WS02006249           JUNCTION        1.72          0.390        0.000
  WS02006251           JUNCTION        1.42          1.143        0.037
  WS02006252           JUNCTION        2.02          1.100        0.000
  WS02006253           JUNCTION        1.47          2.051        0.429
  WS02006256           JUNCTION        6.22          2.050        0.000
  WS02006280           JUNCTION        0.80          0.692        0.088
  WS02006284           JUNCTION        0.72          0.668        0.132
  WS02006287           JUNCTION        0.60          0.741        0.149
  YS02001580           JUNCTION        0.52          0.450        0.000
  YS02001583           JUNCTION        0.53          0.500        0.000
  YS02001586           JUNCTION        0.65          0.510        0.000
  YS02001590           JUNCTION        0.72          0.750        0.000
  YS02001593           JUNCTION        0.72          0.840        0.000
  YS02001596           JUNCTION        0.82          1.055        0.015
  YS02001600           JUNCTION        0.97          1.190        0.000
  YS02001601           JUNCTION        1.41          1.440        0.000
  YS02001602           JUNCTION        1.25          1.270        0.000
  YS02001605           JUNCTION        1.19          1.180        0.000
  YS02001607           JUNCTION        0.64          0.680        0.000
  YS02001610           JUNCTION        0.67          0.680        0.000
  YS02001613           JUNCTION        0.63          0.663        0.037
  YS02001616           JUNCTION        0.58          0.610        0.000
  YS02001619           JUNCTION        0.57          0.610        0.000
  YS02001622           JUNCTION        0.56          0.578        0.042
  YS02001625           JUNCTION        0.76          0.780        0.000
  YS02001629           JUNCTION        0.44          0.470        0.000
  YS02001633           JUNCTION        0.77          1.043        0.017
  YS02001641           JUNCTION        0.65          1.000        0.100
  YS02001644           JUNCTION        0.58          0.920        0.000
  YS02001647           JUNCTION        0.33          0.810        0.090
  YS02001649           JUNCTION        0.36          1.050        0.000
  YS02001652           JUNCTION        0.25          1.026        0.104
  YS02001655           JUNCTION        0.17          1.200        0.000
  YS02001658           JUNCTION        0.08          1.300        0.000
  YS02001661           JUNCTION        0.01          0.601        0.789
  YS02001745           JUNCTION        0.01          1.217        0.133
  YS02001748           JUNCTION        0.02          1.190        0.000
  YS02001751           JUNCTION        0.11          1.200        0.000
  YS02001754           JUNCTION        0.18          1.150        0.000
  YS02001757           JUNCTION        0.35          1.210        0.000
  YS02001759           JUNCTION        0.30          1.181        0.029
  YS02001762           JUNCTION        0.28          1.140        0.010
  YS02001765           JUNCTION        0.26          1.073        0.027
  YS02001767           JUNCTION        0.25          1.030        0.000
  YS02001770           JUNCTION        0.24          0.920        0.000
  YS02001774           JUNCTION        0.29          1.027        0.023
  YS02001779           JUNCTION        0.20          0.680        0.000
  YS02001783           JUNCTION        0.49          0.536        1.064
  YS02001784           JUNCTION        0.47          0.408        1.082
  YS02001786           JUNCTION        0.37          0.315        1.115
  YS02001882           JUNCTION        0.43          0.830        0.000
  YS02001884           JUNCTION        0.44          0.853        0.017
  YS02001887           JUNCTION        0.48          0.886        0.064
  YS02001890           JUNCTION        0.49          0.760        0.000
  YS02001895           JUNCTION        0.43          0.709        0.041
  YS02001898           JUNCTION        0.42          0.740        0.000
  YS02001901           JUNCTION        0.47          0.870        0.000
  YS02001904           JUNCTION        0.46          0.848        0.002
  YS02001907           JUNCTION        0.66          0.950        0.000
  YS02001910           JUNCTION        0.51          1.100        0.000
  YS02001915           JUNCTION        0.43          1.000        0.000
  YS02001918           JUNCTION        0.35          0.810        0.000
  YS02001920           JUNCTION        0.37          1.100        0.040
  YS02001923           JUNCTION        0.01          0.820        0.000
  YS02001926           JUNCTION        0.02          0.900        0.000
  YS02001929           JUNCTION        0.01          0.780        0.000
  YS02006553           JUNCTION        0.67          1.012        0.178
  YS02006556           JUNCTION        0.59          0.974        0.376
  YS02006558           JUNCTION        0.58          0.940        0.460
  YS02006561           JUNCTION        0.32          0.215        0.935
  YS02163301           JUNCTION        0.75          0.944        0.086
  YS02163601           JUNCTION        0.80          1.080        0.000
  YS02164001           JUNCTION        0.67          1.020        0.080
  YSB1154              JUNCTION        0.92          1.232        0.168
  YSB1171              JUNCTION        0.93          1.100        0.000
  YSB1174              JUNCTION        0.84          1.109        0.141
  YSB6556              JUNCTION        0.76          1.046        0.054
  
  
  *********************
  Node Flooding Summary
  *********************
  
  Flooding refers to all water that overflows a node, whether it ponds or not.
  --------------------------------------------------------------------------
                                                             Total   Maximum
                                 Maximum   Time of Max       Flood    Ponded
                        Hours       Rate    Occurrence      Volume     Depth
  Node                 Flooded       LPS   days hr:min    10^6 ltr    Meters
  --------------------------------------------------------------------------
  HS02004770              0.40   1218.98      0  02:25       0.717     0.000
  HS02004777              0.01     68.06      0  02:12       0.000     0.000
  HS02004785              0.01     60.28      0  02:12       0.000     0.000
  HS02004788              0.01    118.96      0  02:12       0.000     0.000
  HS02004792              0.38   1780.78      0  02:25       1.224     0.000
  HS02004799              0.19    225.73      0  02:25       0.092     0.000
  HS02004807              0.10    409.97      0  02:25       0.085     0.000
  HS02004824              0.01     20.60      0  02:15       0.000     0.000
  HS02004830              0.01     23.20      0  02:15       0.000     0.000
  HS02004837              0.01     74.55      0  02:15       0.000     0.000
  HS02004842              0.01    134.74      0  02:15       0.001     0.000
  HS02004848              0.01    268.99      0  02:15       0.001     0.000
  HS02004852              0.01    261.88      0  02:15       0.000     0.000
  HS02004856              0.01     24.63      0  02:15       0.000     0.000
  HS02004862              0.01    329.42      0  02:15       0.000     0.000
  HS02004870              0.01    322.40      0  02:15       0.000     0.000
  HS02004901              0.46    672.42      0  02:25       0.725     0.000
  WS02006109              0.44    300.63      0  02:25       0.267     0.000
  WS02006228              0.01      1.38      0  02:28       0.000     0.000
  WS02006230              0.72    573.40      0  02:23       0.993     0.000
  WS02006231              0.01      4.41      0  01:50       0.000     0.000
  WS02006232              0.18      6.02      0  01:50       0.000     0.000
  WS02006234              0.83     77.70      0  02:08       0.151     0.000
  WS02006235              0.04     40.44      0  01:59       0.002     0.000
  WS02006238              0.01     20.89      0  01:50       0.000     0.000
  WS02006239              0.01     10.86      0  01:43       0.000     0.000
  WS02006240              0.01     11.32      0  01:50       0.000     0.000
  WS02006242              1.08    129.17      0  02:08       0.379     0.000
  WS02006243              0.01     28.15      0  01:38       0.000     0.000
  WS02006245              0.01     21.78      0  01:38       0.000     0.000
  WS02006247              0.01     73.29      0  01:38       0.000     0.000
  WS02006248              1.37    339.96      0  02:38       1.243     0.000
  WS02006249              1.48   1311.61      0  02:25       4.289     0.000
  WS02006252              0.49    707.95      0  02:25       0.594     0.000
  WS02006256              0.56    298.60      0  02:43       0.422     0.000
  YS02001580              0.01    210.72      0  01:36       0.001     0.000
  YS02001583              0.01    223.38      0  01:36       0.001     0.000
  YS02001586              0.39    186.26      0  01:43       0.159     0.000
  YS02001590              0.01     21.73      0  01:35       0.000     0.000
  YS02001593              0.01     12.28      0  01:35       0.000     0.000
  YS02001600              0.01      9.36      0  01:35       0.000     0.000
  YS02001601              0.56    877.87      0  01:41       0.962     0.000
  YS02001602              0.37     62.07      0  01:47       0.076     0.000
  YS02001605              0.01     12.56      0  01:36       0.000     0.000
  YS02001607              0.01    212.76      0  01:36       0.001     0.000
  YS02001610              0.33    390.34      0  01:43       0.331     0.000
  YS02001616              0.01    209.75      0  01:36       0.001     0.000
  YS02001619              0.01     84.99      0  01:36       0.000     0.000
  YS02001625              0.28   1030.94      0  01:43       0.523     0.000
  YS02001629              0.06    227.14      0  01:36       0.018     0.000
  YS02001644              0.07    485.79      0  01:40       0.062     0.000
  YS02001649              0.01     36.28      0  01:39       0.000     0.000
  YS02001655              0.01    450.52      0  01:38       0.001     0.000
  YS02001658              0.01    301.07      0  01:39       0.000     0.000
  YS02001748              0.01    311.02      0  01:39       0.000     0.000
  YS02001751              0.01     53.26      0  01:39       0.000     0.000
  YS02001754              0.01    244.01      0  01:38       0.000     0.000
  YS02001757              0.01     12.51      0  01:39       0.000     0.000
  YS02001767              0.01     40.41      0  01:38       0.000     0.000
  YS02001770              0.01    289.64      0  01:38       0.001     0.000
  YS02001779              0.06    582.20      0  01:38       0.022     0.000
  YS02001882              0.01     25.05      0  01:36       0.000     0.000
  YS02001890              0.09    254.29      0  01:37       0.023     0.000
  YS02001898              0.01    177.74      0  01:36       0.000     0.000
  YS02001901              0.01     32.03      0  01:37       0.000     0.000
  YS02001907              0.30   1322.54      0  01:39       0.700     0.000
  YS02001910              0.01     82.91      0  01:37       0.000     0.000
  YS02001915              0.01    210.63      0  01:37       0.000     0.000
  YS02001918              0.01    284.12      0  01:37       0.004     0.000
  YS02001923              0.01    357.31      0  01:38       0.002     0.000
  YS02001926              0.01    753.17      0  01:38       0.004     0.000
  YS02001929              0.01    746.55      0  01:38       0.002     0.000
  YS02163601              0.01      6.99      0  01:38       0.000     0.000
  YSB1171                 0.30   1053.69      0  02:25       0.593     0.000
  
  
  **********************
  Storage Volume Summary
  **********************
  
  --------------------------------------------------------------------------------------------------
                         Average     Avg  Evap Exfil       Maximum     Max    Time of Max    Maximum
                          Volume    Pcnt  Pcnt  Pcnt        Volume    Pcnt     Occurrence    Outflow
  Storage Unit           1000 m3    Full  Loss  Loss       1000 m3    Full    days hr:min        LPS
  --------------------------------------------------------------------------------------------------
  CC-storage               0.568       9     0     0         2.229      35       0  00:00    1783.53
  JK-storage               0.003       1     0     0         0.150      52       0  00:00    2300.00
  XR-storage               0.935      65     0     0         1.111      77       0  08:00     380.00
  
  
  ***********************
  Outfall Loading Summary
  ***********************
  
  -----------------------------------------------------------
                         Flow       Avg       Max       Total
                         Freq      Flow      Flow      Volume
  Outfall Node           Pcnt       LPS       LPS    10^6 ltr
  -----------------------------------------------------------
  CC-1                  40.40    683.00    683.00       4.742
  CC-2                  40.40    683.00    683.00       4.742
  JK-1                  12.18    990.15   1000.00       1.963
  JK-2                  12.18    990.15   1000.00       1.963
  WSC                   99.95    628.02   1521.37      14.118
  -----------------------------------------------------------
  System                41.02   3974.32   1521.37      27.529
  
  
  ********************
  Link Flow Summary
  ********************
  
  -----------------------------------------------------------------------------
                                 Maximum  Time of Max   Maximum    Max/    Max/
                                  |Flow|   Occurrence   |Veloc|    Full    Full
  Link                 Type          LPS  days hr:min     m/sec    Flow   Depth
  -----------------------------------------------------------------------------
  1                    CONDUIT   1521.37     0  02:28      3.71    0.53    0.52
  HS02004478WS02006287 CONDUIT   2304.89     0  02:23      2.60    0.65    1.00
  HS02004479HS02004480 CONDUIT    386.59     0  02:17      0.55    0.37    1.00
  HS02004480HS02004478 CONDUIT   2057.61     0  02:15      2.94    8.67    1.00
  HS02004770HS02004777 CONDUIT    683.73     0  02:12      0.98    1.25    1.00
  HS02004777HS02004785 CONDUIT    686.76     0  02:12      1.05    0.84    1.00
  HS02004785HS02004788 CONDUIT    643.27     0  02:13      1.35    4.85    1.00
  HS02004788HS02004792 CONDUIT    856.86     0  02:13      1.46    0.57    1.00
  HS02004792HS02004799 CONDUIT   1577.31     0  02:13      2.25    0.97    1.00
  HS02004799HS02004480 CONDUIT   1717.29     0  02:13      2.45    2.17    1.00
  HS02004802HS02004478 CONDUIT   1234.14     0  02:27      1.76    1.09    1.00
  HS02004807HS02004802 CONDUIT   1233.83     0  02:27      1.76    2.36    1.00
  HS02004817HS02004807 CONDUIT   1167.08     0  02:25      1.67    0.69    1.00
  HS02004817HS02004824 CONDUIT   1166.41     0  02:25      1.67    0.53    1.00
  HS02004824HS02004830 CONDUIT    559.92     0  02:13      0.80    0.73    1.00
  HS02004830HS02004837 CONDUIT    553.54     0  02:13      0.87    0.55    1.00
  HS02004837HS02004842 CONDUIT    736.47     0  02:15      1.05    0.44    1.00
  HS02004842HS02004848 CONDUIT    736.35     0  02:15      1.12    0.43    1.00
  HS02004848HS02004852 CONDUIT    962.69     0  02:15      1.52    1.09    1.00
  HS02004852HS02004856 CONDUIT    916.85     0  02:15      1.42    1.05    1.00
  HS02004856HS02004862 CONDUIT    975.08     0  02:15      1.63    0.97    1.00
  HS02004862HS02004870 CONDUIT    999.07     0  02:28      1.68    1.08    1.00
  HS02004870HS02004876 CONDUIT   1246.06     0  02:25      1.78    0.83    1.00
  HS02004876HS02004881 CONDUIT   1502.75     0  02:25      2.17   15.98    1.00
  HS02004881HS02006253 CONDUIT   1643.60     0  02:25      2.35    0.32    1.00
  HS02004901HS02004770 CONDUIT    265.79     0  02:36      0.38    1.00    1.00
  WS02001211WS02001212 CONDUIT    210.85     0  03:01      0.54    0.16    0.70
  WS02001212WS02001213 CONDUIT    215.75     0  03:20      1.04    0.33    0.56
  WS02001213WS02003059 CONDUIT    222.68     0  03:20      0.47    0.37    0.90
  WS02003059WS02003060 CONDUIT    230.31     0  03:19      0.66    0.15    0.82
  WS02003060WS02003069 CONDUIT   1518.69     0  02:26      2.09    0.59    0.61
  WS02003066WSF200     CONDUIT   1319.25     0  02:25      3.25    0.22    0.39
  WS02003067WS02003066 CONDUIT   1319.12     0  02:25      2.02    0.42    0.56
  WS02003069WS02003072 CONDUIT   1518.73     0  02:27      1.90    0.73    0.67
  WS02003072WS02003073 CONDUIT   1519.03     0  02:27      2.06    3.28    0.62
  WS02004138WS02004139 CONDUIT    190.00     0  00:32      2.16    0.04    0.42
  WS02004139WS02001211 CONDUIT    196.89     0  03:19      0.54    0.25    0.61
  WS02004401WS02004402 CONDUIT   1319.24     0  02:25      1.68    1.58    1.00
  WS02004402WS02004403 CONDUIT   1319.12     0  02:24      1.68    1.90    1.00
  WS02004403WS02004404 CONDUIT   1319.99     0  02:25      1.68    0.95    1.00
  WS02004404WS02004405 CONDUIT   1319.46     0  02:25      1.68   12.93    1.00
  WS02004405WS02004406 CONDUIT   1320.03     0  02:25      1.68    2.60    1.00
  WS02004406WS02004407 CONDUIT   1319.72     0  02:25      1.69    0.59    0.98
  WS02004407WS02004409 CONDUIT   1318.41     0  02:25      1.84    0.47    0.98
  WS02004409WS02004410 CONDUIT   1318.81     0  02:25      1.68    1.71    1.00
  WS02004410WS02004411 CONDUIT   1318.68     0  02:25      1.68    1.80    1.00
  WS02004411WS02004412 CONDUIT   1318.52     0  02:25      1.68    1.87    1.00
  WS02004412WS02004413 CONDUIT   1318.56     0  02:25      1.68    0.88    1.00
  WS02004413WS02003067 CONDUIT   1318.71     0  02:25      2.04    0.56    0.77
  WS02006109WS02006110 CONDUIT   1125.47     0  02:40      2.24    2.16    1.00
  WS02006110WS02006113 CONDUIT   1125.44     0  02:40      2.24    1.02    1.00
  WS02006111WS02006112 CONDUIT   1125.71     0  02:40      2.24    0.54    1.00
  WS02006112WS02006115 CONDUIT   1319.00     0  02:24      1.68    0.78    1.00
  WS02006113WS02006111 CONDUIT   1125.78     0  02:40      2.71    1.35    1.00
  WS02006115WS02006116 CONDUIT   1319.16     0  02:24      1.68    1.69    1.00
  WS02006116WS02004401 CONDUIT   1318.99     0  02:24      1.68    1.82    1.00
  WS02006228WS02006109 CONDUIT   1288.45     0  02:23      2.56    5.63    1.00
  WS02006229WS02006228 CONDUIT   1288.90     0  02:24      2.56    4.27    1.00
  WS02006230WS02006229 CONDUIT   1015.88     0  02:23      2.64   22.61    1.00
  WS02006231WS02006230 CONDUIT    453.30     0  02:50      1.38    6.88    1.00
  WS02006232WS02006231 CONDUIT    453.33     0  02:41      1.18    0.95    1.00
  WS02006234WS02006232 CONDUIT    453.34     0  02:50      1.39    0.92    1.00
  WS02006235WS02006234 CONDUIT    415.46     0  02:12      1.21    4.38    1.00
  WS02006238WS02006235 CONDUIT    407.90     0  02:12      1.45    0.91    1.00
  WS02006239WS02006238 CONDUIT    405.89     0  02:08      1.10    1.30    1.00
  WS02006240WS02006239 CONDUIT    406.17     0  02:08      1.25    1.28    1.00
  WS02006242WS02006240 CONDUIT    406.73     0  02:08      1.15    1.62    1.00
  WS02006243WS02006242 CONDUIT    418.01     0  01:37      1.33    0.89    1.00
  WS02006245WS02006243 CONDUIT    451.43     0  01:37      1.46    1.34    1.00
  WS02006247WS02006245 CONDUIT    480.26     0  01:36      1.49    3.81    1.00
  WS02006248WS02006247 CONDUIT    475.78     0  01:37      1.42    1.04    1.00
  WS02006249WS02006248 CONDUIT    498.10     0  01:36      1.43    2.73    1.00
  WS02006251WS02006249 CONDUIT   1372.55     0  02:25      3.57    3.96    1.00
  WS02006252WS02006251 CONDUIT    412.80     0  01:38      4.83    1.52    1.00
  WS02006253WS02006251 CONDUIT   1679.97     0  02:25      4.37    5.04    1.00
  WS02006256WS02006235 CONDUIT    288.93     0  00:00      4.23    3.06    1.00
  WS02006280WS02006229 CONDUIT   2305.59     0  02:23      4.02    0.49    1.00
  WS02006284WS02006280 CONDUIT   2304.12     0  02:23      3.02    0.96    1.00
  WS02006287WS02006284 CONDUIT   2304.87     0  02:23      2.93    1.07    1.00
  WSF200WS02003060     CONDUIT   1319.16     0  02:26      2.30    0.29    0.51
  YS02001580YS02001583 CONDUIT    253.88     0  01:36      1.04    0.98    1.00
  YS02001583YS02001586 CONDUIT    243.02     0  01:36      1.11    0.37    1.00
  YS02001586YS02001590 CONDUIT    318.02     0  01:50      1.30    0.56    1.00
  YS02001590YS02001593 CONDUIT    317.94     0  01:50      1.12    2.00    1.00
  YS02001593YS02001596 CONDUIT    317.82     0  01:47      1.74    0.50    1.00
  YS02001596YS02001600 CONDUIT    317.91     0  01:46      1.19    0.62    1.00
  YS02001600YS02001601 CONDUIT    317.80     0  01:50      1.12    0.55    1.00
  YS02001601YS02001602 CONDUIT    589.30     0  01:36      2.08    2.13    1.00
  YS02001602YS02001605 CONDUIT    589.50     0  01:36      2.08   12.47    1.00
  YS02001605YS02001607 CONDUIT    589.25     0  01:36      2.08    3.23    1.00
  YS02001607YS02001610 CONDUIT    559.33     0  01:36      0.76    0.53    1.00
  YS02001610YS02001613 CONDUIT    530.67     0  01:36      0.71    0.61    1.00
  YS02001613YS02001616 CONDUIT    513.02     0  02:09      0.69    0.44    1.00
  YS02001616YS02001619 CONDUIT    512.92     0  02:09      0.67    0.89    1.00
  YS02001619YS02001622 CONDUIT    947.00     0  01:59      1.36    1.40    1.00
  YS02001622YS02001625 CONDUIT    946.90     0  01:59      1.21    0.51    1.00
  YS02001625YS02001629 CONDUIT    946.74     0  01:59      1.21    0.45    1.00
  YS02001629YS02163301 CONDUIT    948.08     0  01:59      1.21    1.17    1.00
  YS02001633YS02163601 CONDUIT   1357.31     0  01:37      1.73    1.42    1.00
  YS02001641YS02001644 CONDUIT   1354.66     0  01:37      1.72    4.38    1.00
  YS02001644YS02001647 CONDUIT   1892.67     0  01:37      2.41    1.11    1.00
  YS02001647YS02001649 CONDUIT   1914.70     0  01:37      2.44    1.01    1.00
  YS02001649YS02001757 CONDUIT   2176.61     0  01:38      2.77    1.32    1.00
  YS02001652YS02001649 CONDUIT    815.52     0  01:40      1.04    0.40    1.00
  YS02001655YS02001652 CONDUIT    814.70     0  01:40      1.63    0.40    1.00
  YS02001658YS02001655 CONDUIT    814.33     0  01:40      2.12    0.35    1.00
  YS02001661YS02001658 CONDUIT    814.19     0  01:40      2.48    0.32    1.00
  YS02001664YS02001661 CONDUIT    758.22     0  01:40      2.46    0.24    0.84
  YS02001745YS02001748 CONDUIT    586.98     0  01:39      2.41    0.23    1.00
  YS02001748YS02001751 CONDUIT    590.56     0  01:39      1.96    0.30    1.00
  YS02001751YS02001754 CONDUIT    590.78     0  01:39      1.66    0.28    1.00
  YS02001754YS02001757 CONDUIT    591.77     0  01:39      0.75    0.24    1.00
  YS02001757CaochengTiaoxuchi CONDUIT   3268.19     0  01:39      7.05    1.41    0.82
  YS02001759YS02001757 CONDUIT   1387.16     0  01:39      1.77    0.99    1.00
  YS02001762YS02001759 CONDUIT    809.98     0  01:39      1.03    0.93    1.00
  YS02001765YS02001762 CONDUIT    809.26     0  01:39      1.03    0.76    1.00
  YS02001767YS02001765 CONDUIT    807.68     0  01:39      1.03    1.02    1.00
  YS02001770YS02001767 CONDUIT    805.33     0  01:39      1.03    3.19    1.00
  YS02001774YS02001770 CONDUIT    615.12     0  01:38      0.78    0.39    1.00
  YS02001779YS02001774 CONDUIT    623.35     0  01:38      0.80    0.31    1.00
  YS02001783YS02001784 CONDUIT   1157.62     0  01:38      2.30    1.60    1.00
  YS02001784YS02001785 CONDUIT   1158.84     0  01:38      2.31    2.70    1.00
  YS02001786YS02001788 CONDUIT   1159.57     0  01:38      2.48    2.23    0.89
  YS02001788YS02001790 CONDUIT   1175.89     0  01:39      2.73    0.87    0.84
  YS02001790YS02001791 CONDUIT   1282.10     0  01:41      3.42    1.39    0.70
  YS02001791YS02001793 CONDUIT   1234.81     0  01:38      6.42    0.53    0.43
  YS02001793JiankangQianchi CONDUIT   1320.44     0  01:42     23.69    0.10    0.50
  YS02001882YS02001884 CONDUIT    126.50     0  01:36      0.16    0.15    1.00
  YS02001884YS02001887 CONDUIT    150.33     0  01:36      0.19    0.20    1.00
  YS02001887YS02001890 CONDUIT    648.55     0  01:39      0.83    1.11    1.00
  YS02001890YS02001895 CONDUIT    633.23     0  01:37      0.81    0.30    1.00
  YS02001895YS02001898 CONDUIT    635.09     0  01:37      0.81    1.10    1.00
  YS02001898YS02001901 CONDUIT    637.44     0  01:37      0.81    0.41    1.00
  YS02001901YS02001904 CONDUIT    638.27     0  01:37      0.81    0.99    1.00
  YS02001904YS02001907 CONDUIT    638.56     0  01:37      0.81    0.22    1.00
  YS02001907YS02006553 CONDUIT    789.84     0  01:56      0.88    0.93    1.00
  YS02001910YS02001907 CONDUIT   1118.74     0  01:39      1.42    0.63    1.00
  YS02001915YS02001910 CONDUIT   1118.74     0  01:39      1.42    0.56    1.00
  YS02001918YS02001915 CONDUIT    826.32     0  01:37      1.06    0.46    1.00
  YS02001920YS02001918 CONDUIT    757.86     0  01:37      0.96    0.73    1.00
  YS02001923YS02001920 CONDUIT    779.47     0  01:37      1.04    0.35    1.00
  YS02001926YS02001923 CONDUIT   1033.43     0  01:38      1.48    1.48    1.00
  YS02001929YS02001926 CONDUIT    645.36     0  01:38      1.24    0.31    1.00
  YS02006553YS02006556 CONDUIT    790.07     0  01:56      1.01    0.68    1.00
  YS02006556YS02006558 CONDUIT    790.84     0  01:56      1.01    0.62    1.00
  YS02006558YS02006561 CONDUIT   1170.28     0  01:37      4.15    2.59    1.00
  YS02006561YS02001783 CONDUIT   1157.52     0  01:38      2.30    0.60    1.00
  YS02163301YS02001633 CONDUIT    948.38     0  02:00      1.21    0.89    1.00
  YS02163601YS02164001 CONDUIT   1356.06     0  01:37      1.73    1.20    1.00
  YS02164001YS02001641 CONDUIT   1351.60     0  01:37      1.72    1.85    1.00
  YSB1154YSB6556       CONDUIT    441.46     0  02:25      1.15    0.79    1.00
  YSB1171HS02004479    CONDUIT    386.28     0  02:17      0.77    0.26    1.00
  YSB1174YSB1171       CONDUIT    380.81     0  02:25      0.99    0.58    1.00
  YSB6556YSB1171       CONDUIT    442.09     0  02:25      1.15    0.46    1.00
  CC-R1                PUMP       683.00     0  00:00              1.00
  CC-R2                PUMP       683.00     0  00:00              1.00
  CC-S1                PUMP       200.00     0  00:00              1.00
  CC-S2                PUMP       200.00     0  00:00              1.00
  JK-R1                PUMP      1000.00     0  00:00              1.00
  JK-R2                PUMP      1000.00     0  00:00              1.00
  JK-S                 PUMP       300.00     0  00:00              1.00
  XR-1                 PUMP        95.00     0  00:00              1.00
  XR-2                 PUMP        95.00     0  00:00              1.00
  XR-3                 PUMP        95.00     0  00:00              1.00
  XR-4                 PUMP        95.00     0  00:00              1.00
  
  
  ***************************
  Flow Classification Summary
  ***************************
  
  -------------------------------------------------------------------------------------
                      Adjusted    ---------- Fraction of Time in Flow Class ---------- 
                       /Actual         Up    Down  Sub   Sup   Up    Down  Norm  Inlet 
  Conduit               Length    Dry  Dry   Dry   Crit  Crit  Crit  Crit  Ltd   Ctrl  
  -------------------------------------------------------------------------------------
  1                       1.00   0.00  0.00  0.00  0.00  1.00  0.00  0.00  0.40  0.00
  HS02004478WS02006287    1.00   0.15  0.00  0.00  0.54  0.31  0.00  0.00  0.58  0.00
  HS02004479HS02004480    1.00   0.06  0.00  0.00  0.94  0.00  0.00  0.00  0.11  0.00
  HS02004480HS02004478    1.00   0.14  0.00  0.00  0.49  0.00  0.00  0.38  0.00  0.00
  HS02004770HS02004777    1.00   0.00  0.13  0.00  0.87  0.00  0.00  0.00  0.02  0.00
  HS02004777HS02004785    1.00   0.00  0.00  0.00  1.00  0.00  0.00  0.00  0.11  0.00
  HS02004785HS02004788    1.00   0.00  0.00  0.00  1.00  0.00  0.00  0.00  0.00  0.00
  HS02004788HS02004792    1.00   0.00  0.00  0.00  0.99  0.01  0.00  0.00  0.90  0.00
  HS02004792HS02004799    1.00   0.00  0.00  0.00  0.99  0.01  0.00  0.00  0.85  0.00
  HS02004799HS02004480    1.00   0.00  0.05  0.00  0.85  0.00  0.09  0.00  0.00  0.00
  HS02004802HS02004478    1.00   0.14  0.00  0.00  0.86  0.00  0.00  0.00  0.02  0.00
  HS02004807HS02004802    1.00   0.13  0.00  0.00  0.86  0.00  0.00  0.01  0.00  0.00
  HS02004817HS02004807    1.00   0.00  0.13  0.00  0.87  0.00  0.00  0.00  0.01  0.00
  HS02004817HS02004824    1.00   0.00  0.00  0.00  1.00  0.00  0.00  0.00  0.81  0.00
  HS02004824HS02004830    1.00   0.00  0.00  0.00  1.00  0.00  0.00  0.00  0.01  0.00
  HS02004830HS02004837    1.00   0.00  0.00  0.00  1.00  0.00  0.00  0.00  0.87  0.00
  HS02004837HS02004842    1.00   0.00  0.00  0.00  1.00  0.00  0.00  0.00  0.11  0.00
  HS02004842HS02004848    1.00   0.00  0.13  0.00  0.87  0.00  0.00  0.00  0.54  0.00
  HS02004848HS02004852    1.00   0.13  0.00  0.00  0.87  0.00  0.00  0.00  0.70  0.00
  HS02004852HS02004856    1.00   0.13  0.01  0.00  0.86  0.00  0.00  0.00  0.66  0.00
  HS02004856HS02004862    1.00   0.00  0.15  0.00  0.85  0.00  0.00  0.00  0.74  0.00
  HS02004862HS02004870    1.00   0.00  0.00  0.00  1.00  0.00  0.00  0.00  0.03  0.00
  HS02004870HS02004876    1.00   0.00  0.00  0.00  0.97  0.02  0.00  0.00  0.85  0.00
  HS02004876HS02004881    1.00   0.02  0.00  0.00  0.70  0.28  0.00  0.00  0.00  0.00
  HS02004881HS02006253    1.00   0.00  0.08  0.00  0.37  0.01  0.00  0.54  0.13  0.00
  HS02004901HS02004770    1.00   0.13  0.00  0.00  0.87  0.00  0.00  0.00  0.00  0.00
  WS02001211WS02001212    1.00   0.00  0.03  0.00  0.97  0.00  0.00  0.00  0.00  0.00
  WS02001212WS02001213    1.00   0.03  0.00  0.00  0.46  0.00  0.51  0.00  0.00  0.00
  WS02001213WS02003059    1.00   0.00  0.00  0.00  0.99  0.00  0.00  0.00  0.00  0.00
  WS02003059WS02003060    1.00   0.00  0.00  0.00  1.00  0.00  0.00  0.00  0.03  0.00
  WS02003060WS02003069    1.00   0.00  0.00  0.00  0.97  0.03  0.00  0.00  0.50  0.00
  WS02003066WSF200        1.00   0.08  0.00  0.00  0.00  0.92  0.00  0.00  0.71  0.00
  WS02003067WS02003066    1.00   0.07  0.01  0.00  0.92  0.00  0.00  0.00  0.00  0.00
  WS02003069WS02003072    1.00   0.00  0.00  0.00  1.00  0.00  0.00  0.00  0.65  0.00
  WS02003072WS02003073    1.00   0.00  0.00  0.00  0.00  0.00  0.00  1.00  0.00  0.00
  WS02004138WS02004139    1.00   0.00  0.01  0.00  0.96  0.01  0.00  0.01  0.98  0.00
  WS02004139WS02001211    1.00   0.00  0.00  0.00  0.99  0.00  0.00  0.00  0.00  0.00
  WS02004401WS02004402    1.00   0.03  0.00  0.00  0.97  0.00  0.00  0.00  0.00  0.00
  WS02004402WS02004403    1.00   0.03  0.00  0.00  0.97  0.00  0.00  0.00  0.00  0.00
  WS02004403WS02004404    1.00   0.00  0.03  0.00  0.97  0.00  0.00  0.00  0.00  0.00
  WS02004404WS02004405    1.00   0.00  0.00  0.00  1.00  0.00  0.00  0.00  0.01  0.00
  WS02004405WS02004406    1.00   0.00  0.00  0.00  1.00  0.00  0.00  0.00  0.00  0.00
  WS02004406WS02004407    1.00   0.00  0.05  0.00  0.94  0.00  0.00  0.00  0.00  0.00
  WS02004407WS02004409    1.00   0.06  0.00  0.00  0.93  0.01  0.00  0.00  0.82  0.00
  WS02004409WS02004410    1.00   0.06  0.00  0.00  0.94  0.00  0.00  0.00  0.00  0.00
  WS02004410WS02004411    1.00   0.06  0.00  0.00  0.94  0.00  0.00  0.00  0.00  0.00
  WS02004411WS02004412    1.00   0.06  0.00  0.00  0.94  0.00  0.00  0.00  0.00  0.00
  WS02004412WS02004413    1.00   0.06  0.00  0.00  0.94  0.00  0.00  0.00  0.00  0.00
  WS02004413WS02003067    1.00   0.06  0.01  0.00  0.00  0.00  0.93  0.00  0.00  0.00
  WS02006109WS02006110    1.00   0.00  0.01  0.00  0.98  0.00  0.01  0.00  0.00  0.00
  WS02006110WS02006113    1.00   0.01  0.01  0.00  0.98  0.00  0.00  0.00  0.00  0.00
  WS02006111WS02006112    1.00   0.02  0.00  0.00  0.97  0.00  0.00  0.00  0.77  0.00
  WS02006112WS02006115    1.00   0.02  0.01  0.00  0.97  0.00  0.01  0.00  0.00  0.00
  WS02006113WS02006111    1.00   0.02  0.00  0.00  0.33  0.65  0.00  0.00  0.08  0.00
  WS02006115WS02006116    1.00   0.02  0.00  0.00  0.96  0.00  0.00  0.01  0.00  0.00
  WS02006116WS02004401    1.00   0.03  0.00  0.00  0.97  0.00  0.00  0.00  0.00  0.00
  WS02006228WS02006109    1.00   0.00  0.00  0.00  1.00  0.00  0.00  0.00  0.00  0.00
  WS02006229WS02006228    1.00   0.00  0.00  0.00  0.99  0.00  0.00  0.01  0.00  0.00
  WS02006230WS02006229    1.00   0.00  0.00  0.00  0.99  0.00  0.00  0.01  0.03  0.00
  WS02006231WS02006230    1.00   0.00  0.00  0.00  0.53  0.00  0.47  0.00  0.00  0.00
  WS02006232WS02006231    1.00   0.00  0.00  0.00  0.99  0.00  0.00  0.00  0.00  0.00
  WS02006234WS02006232    1.00   0.00  0.00  0.00  1.00  0.00  0.00  0.00  0.07  0.00
  WS02006235WS02006234    1.00   0.00  0.00  0.00  0.80  0.00  0.20  0.00  0.00  0.00
  WS02006238WS02006235    1.00   0.00  0.00  0.00  1.00  0.00  0.00  0.00  0.01  0.00
  WS02006239WS02006238    1.00   0.00  0.00  0.00  1.00  0.00  0.00  0.00  0.22  0.00
  WS02006240WS02006239    1.00   0.00  0.00  0.00  0.74  0.00  0.00  0.26  0.02  0.00
  WS02006242WS02006240    1.00   0.00  0.00  0.00  0.99  0.00  0.00  0.00  0.00  0.00
  WS02006243WS02006242    1.00   0.00  0.00  0.00  0.99  0.00  0.00  0.00  0.65  0.00
  WS02006245WS02006243    1.00   0.00  0.00  0.00  0.91  0.00  0.00  0.09  0.00  0.00
  WS02006247WS02006245    1.00   0.00  0.00  0.00  0.99  0.00  0.00  0.01  0.00  0.00
  WS02006248WS02006247    1.00   0.00  0.00  0.00  0.99  0.00  0.00  0.00  0.64  0.00
  WS02006249WS02006248    1.00   0.00  0.00  0.00  0.56  0.00  0.44  0.00  0.00  0.00
  WS02006251WS02006249    1.00   0.00  0.00  0.00  1.00  0.00  0.00  0.00  0.63  0.00
  WS02006252WS02006251    1.00   0.00  0.18  0.00  0.33  0.00  0.48  0.00  0.00  0.00
  WS02006253WS02006251    1.00   0.00  0.00  0.00  0.97  0.00  0.03  0.00  0.00  0.00
  WS02006256WS02006235    1.00   0.00  0.00  0.00  0.99  0.01  0.00  0.00  0.01  0.00
  WS02006280WS02006229    1.00   0.14  0.00  0.00  0.27  0.06  0.00  0.52  0.01  0.00
  WS02006284WS02006280    1.00   0.14  0.00  0.00  0.17  0.02  0.00  0.67  0.00  0.00
  WS02006287WS02006284    1.00   0.12  0.03  0.00  0.45  0.40  0.00  0.00  0.64  0.00
  WSF200WS02003060        1.00   0.00  0.08  0.00  0.51  0.41  0.00  0.00  0.65  0.00
  YS02001580YS02001583    1.00   0.20  0.49  0.00  0.32  0.00  0.00  0.00  0.71  0.00
  YS02001583YS02001586    1.00   0.32  0.27  0.00  0.41  0.00  0.00  0.00  0.71  0.00
  YS02001586YS02001590    1.00   0.13  0.00  0.00  0.57  0.03  0.00  0.27  0.35  0.00
  YS02001590YS02001593    1.00   0.13  0.00  0.00  0.21  0.00  0.65  0.00  0.00  0.00
  YS02001593YS02001596    1.00   0.14  0.00  0.00  0.23  0.01  0.00  0.61  0.02  0.00
  YS02001596YS02001600    1.00   0.14  0.00  0.00  0.34  0.02  0.00  0.50  0.06  0.00
  YS02001600YS02001601    1.00   0.14  0.00  0.00  0.86  0.00  0.00  0.00  0.61  0.00
  YS02001601YS02001602    1.00   0.13  0.00  0.00  0.86  0.00  0.00  0.00  0.00  0.00
  YS02001602YS02001605    1.00   0.14  0.00  0.00  0.86  0.00  0.00  0.00  0.00  0.00
  YS02001605YS02001607    1.00   0.14  0.00  0.00  0.86  0.00  0.00  0.00  0.00  0.00
  YS02001607YS02001610    1.00   0.14  0.00  0.00  0.86  0.00  0.00  0.00  0.01  0.00
  YS02001610YS02001613    1.00   0.14  0.00  0.00  0.86  0.00  0.00  0.00  0.00  0.00
  YS02001613YS02001616    1.00   0.13  0.00  0.00  0.87  0.00  0.00  0.00  0.00  0.00
  YS02001616YS02001619    1.00   0.13  0.00  0.00  0.87  0.00  0.00  0.00  0.00  0.00
  YS02001619YS02001622    1.00   0.13  0.00  0.00  0.87  0.00  0.00  0.00  0.30  0.00
  YS02001622YS02001625    1.00   0.13  0.00  0.00  0.87  0.00  0.00  0.00  0.04  0.00
  YS02001625YS02001629    1.00   0.14  0.03  0.00  0.27  0.00  0.57  0.00  0.00  0.00
  YS02001629YS02163301    1.00   0.15  0.00  0.00  0.85  0.00  0.00  0.00  0.00  0.00
  YS02001633YS02163601    1.00   0.00  0.01  0.00  0.99  0.00  0.00  0.00  0.15  0.00
  YS02001641YS02001644    1.00   0.00  0.00  0.00  1.00  0.00  0.00  0.00  0.00  0.00
  YS02001644YS02001647    1.00   0.00  0.16  0.00  0.84  0.00  0.00  0.00  0.00  0.00
  YS02001647YS02001649    1.00   0.00  0.16  0.00  0.46  0.39  0.00  0.00  0.58  0.00
  YS02001649YS02001757    1.00   0.00  0.00  0.00  0.61  0.38  0.00  0.00  0.71  0.00
  YS02001652YS02001649    1.00   0.00  0.00  0.00  0.97  0.02  0.00  0.00  0.74  0.00
  YS02001655YS02001652    1.00   0.00  0.00  0.00  0.30  0.04  0.00  0.66  0.11  0.00
  YS02001658YS02001655    1.00   0.00  0.14  0.00  0.49  0.37  0.00  0.00  0.76  0.00
  YS02001661YS02001658    1.00   0.14  0.00  0.00  0.33  0.53  0.00  0.00  0.77  0.00
  YS02001664YS02001661    1.00   0.13  0.00  0.00  0.63  0.24  0.00  0.00  0.86  0.00
  YS02001745YS02001748    1.00   0.00  0.00  0.00  0.06  0.02  0.00  0.92  0.02  0.00
  YS02001748YS02001751    1.00   0.00  0.00  0.00  0.65  0.35  0.00  0.00  0.84  0.00
  YS02001751YS02001754    1.00   0.00  0.00  0.00  0.21  0.02  0.00  0.78  0.05  0.00
  YS02001754YS02001757    1.00   0.00  0.00  0.00  1.00  0.00  0.00  0.00  0.87  0.00
  YS02001757CaochengTiaoxuchi    1.00   0.00  0.00  0.00  0.12  0.88  0.00  0.00  0.28  0.00
  YS02001759YS02001757    1.00   0.00  0.00  0.00  1.00  0.00  0.00  0.00  0.66  0.00
  YS02001762YS02001759    1.00   0.00  0.00  0.00  1.00  0.00  0.00  0.00  0.05  0.00
  YS02001765YS02001762    1.00   0.00  0.00  0.00  1.00  0.00  0.00  0.00  0.73  0.00
  YS02001767YS02001765    1.00   0.00  0.00  0.00  1.00  0.00  0.00  0.00  0.00  0.00
  YS02001770YS02001767    1.00   0.00  0.00  0.00  1.00  0.00  0.00  0.00  0.00  0.00
  YS02001774YS02001770    1.00   0.00  0.14  0.00  0.76  0.00  0.10  0.00  0.03  0.00
  YS02001779YS02001774    1.00   0.00  0.00  0.00  1.00  0.00  0.00  0.00  0.79  0.00
  YS02001783YS02001784    1.00   0.00  0.16  0.00  0.84  0.00  0.00  0.00  0.56  0.00
  YS02001784YS02001785    1.00   0.00  0.00  0.00  1.00  0.00  0.00  0.00  0.16  0.00
  YS02001786YS02001788    1.00   0.00  0.00  0.00  0.67  0.33  0.00  0.00  0.00  0.00
  YS02001788YS02001790    1.00   0.00  0.00  0.00  0.21  0.79  0.00  0.00  0.82  0.00
  YS02001790YS02001791    1.00   0.00  0.00  0.00  0.01  0.99  0.00  0.00  0.16  0.00
  YS02001791YS02001793    1.00   0.00  0.00  0.00  0.00  1.00  0.00  0.00  0.01  0.00
  YS02001793JiankangQianchi    1.00   0.00  0.00  0.00  0.12  0.88  0.00  0.00  0.61  0.00
  YS02001882YS02001884    1.00   0.15  0.00  0.00  0.85  0.00  0.00  0.00  0.00  0.00
  YS02001884YS02001887    1.00   0.09  0.04  0.00  0.87  0.00  0.00  0.00  0.00  0.00
  YS02001887YS02001890    1.00   0.00  0.00  0.00  0.96  0.00  0.04  0.00  0.00  0.00
  YS02001890YS02001895    1.00   0.00  0.15  0.00  0.85  0.00  0.00  0.00  0.00  0.00
  YS02001895YS02001898    1.00   0.15  0.00  0.00  0.83  0.00  0.01  0.00  0.00  0.00
  YS02001898YS02001901    1.00   0.15  0.00  0.00  0.85  0.00  0.00  0.00  0.01  0.00
  YS02001901YS02001904    1.00   0.15  0.00  0.00  0.85  0.00  0.00  0.00  0.00  0.00
  YS02001904YS02001907    1.00   0.00  0.15  0.00  0.85  0.00  0.00  0.00  0.00  0.00
  YS02001907YS02006553    1.00   0.00  0.02  0.00  0.97  0.00  0.00  0.00  0.00  0.00
  YS02001910YS02001907    1.00   0.00  0.00  0.00  0.96  0.01  0.00  0.03  0.12  0.00
  YS02001915YS02001910    1.00   0.00  0.00  0.00  0.97  0.03  0.00  0.00  0.15  0.00
  YS02001918YS02001915    1.00   0.00  0.00  0.00  0.97  0.03  0.00  0.00  0.76  0.00
  YS02001920YS02001918    1.00   0.00  0.00  0.00  1.00  0.00  0.00  0.00  0.00  0.00
  YS02001923YS02001920    1.00   0.00  0.00  0.00  1.00  0.00  0.00  0.00  0.93  0.00
  YS02001926YS02001923    1.00   0.00  0.10  0.00  0.12  0.00  0.78  0.00  0.00  0.00
  YS02001929YS02001926    1.00   0.00  0.13  0.00  0.87  0.00  0.00  0.00  0.83  0.00
  YS02006553YS02006556    1.00   0.01  0.00  0.00  0.99  0.00  0.00  0.00  0.03  0.00
  YS02006556YS02006558    1.00   0.00  0.00  0.00  1.00  0.00  0.00  0.00  0.00  0.00
  YS02006558YS02006561    1.00   0.16  0.00  0.00  0.11  0.73  0.00  0.00  0.19  0.00
  YS02006561YS02001783    1.00   0.16  0.00  0.00  0.16  0.67  0.00  0.00  0.70  0.00
  YS02163301YS02001633    1.00   0.00  0.15  0.00  0.85  0.00  0.00  0.00  0.00  0.00
  YS02163601YS02164001    1.00   0.00  0.11  0.00  0.89  0.00  0.00  0.00  0.00  0.00
  YS02164001YS02001641    1.00   0.01  0.10  0.00  0.89  0.00  0.00  0.00  0.06  0.00
  YSB1154YSB6556          1.00   0.13  0.00  0.00  0.87  0.00  0.00  0.00  0.02  0.00
  YSB1171HS02004479       1.00   0.06  0.00  0.00  0.91  0.00  0.00  0.02  0.10  0.00
  YSB1174YSB1171          1.00   0.08  0.04  0.00  0.88  0.00  0.00  0.00  0.00  0.00
  YSB6556YSB1171          1.00   0.06  0.07  0.00  0.87  0.00  0.00  0.00  0.00  0.00
  
  
  *************************
  Conduit Surcharge Summary
  *************************
  
  ----------------------------------------------------------------------------
                                                           Hours        Hours 
                         --------- Hours Full --------   Above Full   Capacity
  Conduit                Both Ends  Upstream  Dnstream   Normal Flow   Limited
  ----------------------------------------------------------------------------
  HS02004478WS02006287        0.50      0.50      0.69      0.01         0.01
  HS02004479HS02004480        0.69      0.69      0.71      0.01         0.01
  HS02004480HS02004478        0.61      0.68      0.61      1.77         0.61
  HS02004770HS02004777        0.57      0.57      0.58      0.12         0.07
  HS02004777HS02004785        0.53      0.53      0.58      0.01         0.01
  HS02004785HS02004788        0.52      0.53      0.52      1.47         0.47
  HS02004788HS02004792        0.52      0.52      0.65      0.01         0.01
  HS02004792HS02004799        0.65      0.65      0.79      0.01         0.01
  HS02004799HS02004480        0.68      0.68      0.79      0.89         0.01
  HS02004802HS02004478        0.63      0.63      0.70      0.11         0.01
  HS02004807HS02004802        0.67      0.67      0.70      0.27         0.28
  HS02004817HS02004807        0.67      0.67      1.28      0.01         0.01
  HS02004817HS02004824        0.53      0.53      1.28      0.01         0.01
  HS02004824HS02004830        0.50      0.50      0.53      0.01         0.01
  HS02004830HS02004837        0.46      0.46      0.50      0.01         0.01
  HS02004837HS02004842        0.46      0.46      0.59      0.01         0.01
  HS02004842HS02004848        0.42      0.42      0.59      0.01         0.01
  HS02004848HS02004852        0.42      0.42      0.44      0.02         0.01
  HS02004852HS02004856        0.44      0.44      0.47      0.01         0.01
  HS02004856HS02004862        0.44      0.44      0.47      0.01         0.01
  HS02004862HS02004870        0.47      0.47      0.49      0.18         0.19
  HS02004870HS02004876        0.49      0.49      0.56      0.01         0.01
  HS02004876HS02004881        0.54      0.56      0.54      1.51         0.54
  HS02004881HS02006253        0.54      0.54      1.46      0.01         0.01
  HS02004901HS02004770        0.57      0.57      0.58      0.01         0.01
  WS02003072WS02003073        0.01      0.01      0.01      2.27         0.01
  WS02004401WS02004402        1.59      1.59      1.60      1.45         1.40
  WS02004402WS02004403        1.60      1.60      1.60      1.59         1.58
  WS02004403WS02004404        1.60      1.60      1.66      0.01         0.03
  WS02004404WS02004405        1.65      1.66      1.65      3.10         1.65
  WS02004405WS02004406        1.64      1.65      1.64      1.74         1.64
  WS02004406WS02004407        0.01      0.01      1.64      0.01         0.01
  WS02004407WS02004409        0.01      0.01      1.10      0.01         0.01
  WS02004409WS02004410        1.01      1.10      1.01      1.54         1.01
  WS02004410WS02004411        0.91      1.01      0.91      1.56         0.91
  WS02004411WS02004412        0.82      0.91      0.82      1.58         0.82
  WS02004412WS02004413        0.82      0.82      1.38      0.01         0.01
  WS02004413WS02003067        0.01      0.01      1.38      0.01         0.01
  WS02006109WS02006110        1.70      1.70      2.04      1.70         0.01
  WS02006110WS02006113        1.35      1.35      1.99      0.31         0.01
  WS02006111WS02006112        1.32      1.32      2.28      0.01         0.01
  WS02006112WS02006115        1.55      1.55      1.76      0.01         0.01
  WS02006113WS02006111        1.34      1.35      1.34      1.46         1.34
  WS02006115WS02006116        1.55      1.56      1.56      1.55         1.53
  WS02006116WS02004401        1.58      1.58      1.59      1.59         1.56
  WS02006228WS02006109        1.93      2.03      1.93      2.56         1.93
  WS02006229WS02006228        1.91      1.97      1.91      2.31         1.91
  WS02006230WS02006229        2.14      2.20      2.14      2.96         0.90
  WS02006231WS02006230        1.63      1.63      1.65      2.62         1.19
  WS02006232WS02006231        1.64      1.64      1.87      0.01         0.15
  WS02006234WS02006232        1.66      1.66      1.87      0.01         0.05
  WS02006235WS02006234        1.63      1.64      1.73      2.34         1.14
  WS02006238WS02006235        1.76      1.76      1.85      0.01         0.20
  WS02006239WS02006238        1.77      1.82      1.78      1.13         0.31
  WS02006240WS02006239        1.71      1.73      1.71      1.13         0.27
  WS02006242WS02006240        1.71      1.71      1.88      1.39         1.02
  WS02006243WS02006242        1.74      1.74      1.83      0.01         0.03
  WS02006245WS02006243        1.71      1.72      1.72      0.36         0.24
  WS02006247WS02006245        1.71      1.75      1.71      1.98         0.44
  WS02006248WS02006247        1.71      1.71      1.74      0.01         0.07
  WS02006249WS02006248        1.68      1.68      1.72      0.78         0.01
  WS02006251WS02006249        1.71      1.74      1.72      1.82         1.55
  WS02006252WS02006251        1.95      1.95      2.01      1.59         0.04
  WS02006253WS02006251        1.73      1.73      1.78      0.83         0.02
  WS02006256WS02006235        2.52      2.66      5.98      0.17         0.11
  WS02006280WS02006229        0.82      0.82      0.94      0.01         0.01
  WS02006284WS02006280        0.72      0.72      0.80      0.01         0.01
  WS02006287WS02006284        0.60      0.60      0.73      0.32         0.32
  YS02001580YS02001583        0.52      0.52      0.56      0.01         0.01
  YS02001583YS02001586        0.53      0.53      0.65      0.01         0.01
  YS02001586YS02001590        0.65      0.65      0.72      0.01         0.01
  YS02001590YS02001593        0.72      0.72      0.74      0.80         0.01
  YS02001593YS02001596        0.73      0.73      0.82      0.01         0.01
  YS02001596YS02001600        0.86      0.86      0.97      0.01         0.01
  YS02001600YS02001601        1.04      1.04      1.41      0.01         0.01
  YS02001601YS02001602        1.25      1.25      1.48      1.00         0.01
  YS02001602YS02001605        1.19      1.19      1.25      2.14         0.01
  YS02001605YS02001607        1.14      1.19      1.14      1.35         1.13
  YS02001607YS02001610        0.64      0.64      0.67      0.01         0.01
  YS02001610YS02001613        0.63      0.63      0.67      0.01         0.01
  YS02001613YS02001616        0.58      0.58      0.63      0.01         0.01
  YS02001616YS02001619        0.57      0.57      0.58      0.01         0.01
  YS02001619YS02001622        0.56      0.57      0.56      0.78         0.55
  YS02001622YS02001625        0.56      0.56      0.76      0.01         0.01
  YS02001625YS02001629        0.44      0.44      0.76      0.01         0.01
  YS02001629YS02163301        0.74      0.74      0.75      0.35         0.35
  YS02001633YS02163601        0.77      0.77      0.80      0.51         0.51
  YS02001641YS02001644        0.58      0.65      0.58      1.52         0.57
  YS02001644YS02001647        0.33      0.33      0.58      0.03         0.01
  YS02001647YS02001649        0.33      0.33      0.36      0.01         0.01
  YS02001649YS02001757        0.35      0.36      0.35      0.40         0.29
  YS02001652YS02001649        0.27      0.27      0.36      0.01         0.01
  YS02001655YS02001652        0.17      0.17      0.25      0.01         0.01
  YS02001658YS02001655        0.08      0.08      0.17      0.01         0.01
  YS02001661YS02001658        0.01      0.01      0.08      0.01         0.01
  YS02001664YS02001661        0.01      0.01      0.02      0.01         0.01
  YS02001745YS02001748        0.01      0.01      0.02      0.01         0.01
  YS02001748YS02001751        0.06      0.06      0.11      0.01         0.01
  YS02001751YS02001754        0.11      0.11      0.18      0.01         0.01
  YS02001754YS02001757        0.19      0.19      0.35      0.01         0.01
  YS02001757CaochengTiaoxuchi        0.01      0.35      0.01      0.44         0.01
  YS02001759YS02001757        0.30      0.30      0.35      0.01         0.01
  YS02001762YS02001759        0.28      0.28      0.30      0.01         0.02
  YS02001765YS02001762        0.26      0.26      0.28      0.01         0.01
  YS02001767YS02001765        0.25      0.25      0.26      0.01         0.04
  YS02001770YS02001767        0.25      0.25      0.25      0.52         0.24
  YS02001774YS02001770        0.24      0.24      0.29      0.01         0.01
  YS02001779YS02001774        0.20      0.20      0.29      0.01         0.01
  YS02001783YS02001784        0.47      0.49      0.47      0.61         0.47
  YS02001784YS02001785        0.37      0.47      0.37      0.83         0.37
  YS02001786YS02001788        0.01      0.37      0.01      0.70         0.01
  YS02001790YS02001791        0.01      0.01      0.01      0.45         0.01
  YS02001882YS02001884        0.43      0.43      0.44      0.01         0.01
  YS02001884YS02001887        0.47      0.47      0.48      0.01         0.01
  YS02001887YS02001890        0.49      0.49      0.50      0.07         0.01
  YS02001890YS02001895        0.43      0.43      0.52      0.01         0.01
  YS02001895YS02001898        0.42      0.42      0.43      0.01         0.01
  YS02001898YS02001901        0.43      0.43      0.47      0.01         0.01
  YS02001901YS02001904        0.46      0.46      0.47      0.01         0.01
  YS02001904YS02001907        0.46      0.46      0.68      0.01         0.01
  YS02001907YS02006553        0.84      0.84      0.91      0.01         0.01
  YS02001910YS02001907        0.51      0.51      0.66      0.01         0.01
  YS02001915YS02001910        0.43      0.43      0.51      0.01         0.01
  YS02001918YS02001915        0.35      0.35      0.43      0.01         0.01
  YS02001920YS02001918        0.35      0.35      0.37      0.01         0.01
  YS02001923YS02001920        0.31      0.31      0.37      0.01         0.01
  YS02001926YS02001923        0.01      0.01      0.02      0.01         0.01
  YS02001929YS02001926        0.01      0.01      0.02      0.01         0.01
  YS02006553YS02006556        0.59      0.59      0.67      0.01         0.01
  YS02006556YS02006558        0.64      0.64      0.70      0.01         0.01
  YS02006558YS02006561        0.39      0.58      0.39      0.79         0.39
  YS02006561YS02001783        0.32      0.32      0.49      0.01         0.01
  YS02163301YS02001633        0.75      0.75      0.79      0.01         0.02
  YS02163601YS02164001        0.67      0.67      0.80      0.29         0.01
  YS02164001YS02001641        0.65      0.67      0.65      0.76         0.55
  YSB1154YSB6556              0.76      0.76      0.92      0.01         0.01
  YSB1171HS02004479           0.64      0.64      0.93      0.01         0.01
  YSB1174YSB1171              0.84      0.84      1.19      0.01         0.01
  YSB6556YSB1171              0.76      0.76      1.35      0.01         0.01
  
  
  ***************
  Pumping Summary
  ***************
  
  ---------------------------------------------------------------------------------------------------------
                                                  Min       Avg       Max     Total     Power    % Time Off
                        Percent   Number of      Flow      Flow      Flow    Volume     Usage    Pump Curve
  Pump                 Utilized   Start-Ups       LPS       LPS       LPS  10^6 ltr     Kw-hr    Low   High
  ---------------------------------------------------------------------------------------------------------
  CC-R1                   24.11           5      0.00    683.00    683.00     4.742     76.70    0.0  100.0
  CC-R2                   24.11           5      0.00    683.00    683.00     4.742     76.70    0.0  100.0
  CC-S1                   24.11           5      0.00    200.00    200.00     1.388     12.41    0.0   33.4
  CC-S2                   24.11           5      0.00    200.00    200.00     1.388     12.41    0.0   33.4
  JK-R1                    7.07         358      0.00    990.15   1000.00     1.998      4.91    0.0    0.0
  JK-R2                    7.07         358      0.00    990.15   1000.00     1.998      4.91    0.0    0.0
  JK-S                     7.07         358      0.00    299.84    300.00     0.610     13.91    0.0    0.0
  XR-1                    97.91           2      0.00     95.00     95.00     2.679      9.63    0.0    0.0
  XR-2                    93.94           2      0.00     95.00     95.00     2.570      8.78    0.0    0.0
  XR-3                     0.00           1      0.00     95.00     95.00     0.000      0.00    0.0    0.0
  XR-4                     0.00           1      0.00     95.00     95.00     0.000      0.00    0.0    0.0
  

  Analysis begun on:  Tue Jul 11 11:21:06 2023
  Analysis ended on:  Tue Jul 11 11:21:11 2023
  Total elapsed time: 00:00:05